data/public_benchmarks/arpae_go/extracted/Challenge_1_Original_Dataset_2_Scenarios/Original_Dataset_Real-Time_Edition_2/Network_05R-010/scenario_1/case.raw
 0,    100, 33, 0, 0, 60.0 / Header line 1
Header line 2
Header line 3
  1001,'',   115, 1, 1, 1, 1, 1.0040854, -70.618631, 1.1, 0.9, 1.1, 0.9
  1002,'',   115, 1, 1, 1, 1, 1.0407108, -72.688695, 1.1, 0.9, 1.1, 0.9
  1003,'',   115, 1, 1, 1, 1, 1.018166, -67.581692, 1.1, 0.9, 1.1, 0.9
  1004,'',   230, 2, 1, 1, 1, 1.0208593, -66.231853, 1.1, 0.9, 1.1, 0.9
  1005,'',   115, 1, 1, 1, 1, 1.0062217, -68.37437, 1.1, 0.9, 1.1, 0.9
  1006,'',  13.8, 2, 1, 1, 1, 1, -66.565615, 1.1, 0.9, 1.1, 0.9
  1007,'',   115, 1, 1, 1, 1, 1.0422811, -71.457685, 1.1, 0.9, 1.1, 0.9
  1008,'',   115, 1, 1, 1, 1, 1.0205226, -66.748986, 1.1, 0.9, 1.1, 0.9
  1009,'',  13.8, 2, 1, 1, 1, 1.0099394, -66.108447, 1.1, 0.9, 1.1, 0.9
  1010,'',   115, 1, 1, 1, 1, 1.0443197, -72.139691, 1.1, 0.9, 1.1, 0.9
  1011,'',    22, 2, 1, 1, 1, 1.0444724, -71.679319, 1.1, 0.9, 1.1, 0.9
  1012,'',   115, 1, 1, 1, 1, 1.0217012, -73.302617, 1.1, 0.9, 1.1, 0.9
  1013,'',   115, 1, 1, 1, 1, 1.01043, -65.351542, 1.1, 0.9, 1.1, 0.9
  1014,'',   115, 1, 1, 1, 1, 1.0118948, -65.46494, 1.1, 0.9, 1.1, 0.9
  1015,'',   115, 1, 1, 1, 1, 1.0466842, -72.402182, 1.1, 0.9, 1.1, 0.9
  1016,'',   115, 1, 1, 1, 1, 1.015, -70.809607, 1.1, 0.9, 1.1, 0.9
  1017,'',   115, 1, 1, 1, 1, 0.99921583, -69.961072, 1.1, 0.9, 1.1, 0.9
  1018,'',   115, 1, 1, 1, 1, 1.0033675, -68.872895, 1.1, 0.9, 1.1, 0.9
  1019,'',   115, 1, 1, 1, 1, 1.015, -70.374244, 1.1, 0.9, 1.1, 0.9
  1020,'',   115, 1, 1, 1, 1, 1.015, -66.150099, 1.1, 0.9, 1.1, 0.9
  1021,'',  13.8, 2, 1, 1, 1, 1, -62.967022, 1.1, 0.9, 1.1, 0.9
  1022,'',   115, 1, 1, 1, 1, 1.0191312, -67.334311, 1.1, 0.9, 1.1, 0.9
  1023,'',  13.8, 2, 1, 1, 1, 1.01, -66.231462, 1.1, 0.9, 1.1, 0.9
  1024,'',   115, 1, 1, 1, 1, 1.0028824, -67.995421, 1.1, 0.9, 1.1, 0.9
  1025,'',   115, 1, 1, 1, 1, 1.0125058, -66.13624, 1.1, 0.9, 1.1, 0.9
  1026,'',  13.8, 2, 1, 1, 1, 1, -61.306382, 1.1, 0.9, 1.1, 0.9
  1027,'',   115, 1, 1, 1, 1, 1, -74.404452, 1.1, 0.9, 1.1, 0.9
  1028,'',   115, 1, 1, 1, 1, 1.0224513, -67.214966, 1.1, 0.9, 1.1, 0.9
  1029,'',   115, 1, 1, 1, 1, 1.0125414, -73.822185, 1.1, 0.9, 1.1, 0.9
  1030,'',   115, 1, 1, 1, 1, 1.0230197, -70.623577, 1.1, 0.9, 1.1, 0.9
  1031,'',   115, 1, 1, 1, 1, 1.0259109, -69.0053, 1.1, 0.9, 1.1, 0.9
  1032,'',   115, 1, 1, 1, 1, 1.0115184, -67.842436, 1.1, 0.9, 1.1, 0.9
  1033,'',   230, 2, 1, 1, 1, 1.0136166, -68.037601, 1.1, 0.9, 1.1, 0.9
  1034,'',   115, 1, 1, 1, 1, 1.0029214, -69.133101, 1.1, 0.9, 1.1, 0.9
  1035,'',  13.8, 2, 1, 1, 1, 1, -67.125739, 1.1, 0.9, 1.1, 0.9
  1036,'',   115, 1, 1, 1, 1, 1.0037175, -69.318381, 1.1, 0.9, 1.1, 0.9
  1037,'',   115, 1, 1, 1, 1, 0.99736806, -70.647618, 1.1, 0.9, 1.1, 0.9
  1038,'',   115, 1, 1, 1, 1, 1.0124819, -67.170125, 1.1, 0.9, 1.1, 0.9
  1039,'',    22, 2, 1, 1, 1, 1, -67.100093, 1.1, 0.9, 1.1, 0.9
  1040,'',   115, 1, 1, 1, 1, 1.0044922, -68.932125, 1.1, 0.9, 1.1, 0.9
  1041,'',   115, 1, 1, 1, 1, 0.99983866, -69.400605, 1.1, 0.9, 1.1, 0.9
  1042,'',  13.8, 2, 1, 1, 1, 0.99983866, -69.400605, 1.1, 0.9, 1.1, 0.9
  1043,'',  13.8, 2, 1, 1, 1, 1, -67.663201, 1.1, 0.9, 1.1, 0.9
  1044,'',   115, 1, 1, 1, 1, 1.0151637, -71.443725, 1.1, 0.9, 1.1, 0.9
  1045,'',   115, 1, 1, 1, 1, 0.99571184, -72.222263, 1.1, 0.9, 1.1, 0.9
  1046,'',   115, 1, 1, 1, 1, 1.0202683, -71.970615, 1.1, 0.9, 1.1, 0.9
  1047,'',   115, 1, 1, 1, 1, 1.0088411, -63.311343, 1.1, 0.9, 1.1, 0.9
  1048,'',    18, 2, 1, 1, 1, 1.0088411, -63.311343, 1.1, 0.9, 1.1, 0.9
  1049,'',    18, 2, 1, 1, 1, 1.0088411, -63.311343, 1.1, 0.9, 1.1, 0.9
  1050,'',    18, 2, 1, 1, 1, 1, -58.24358, 1.1, 0.9, 1.1, 0.9
  1051,'',    18, 2, 1, 1, 1, 1, -56.764844, 1.1, 0.9, 1.1, 0.9
  1052,'',    18, 2, 1, 1, 1, 1.0012166, -59.098042, 1.1, 0.9, 1.1, 0.9
  1053,'',   230, 2, 1, 1, 1, 1.0173721, -66.619046, 1.1, 0.9, 1.1, 0.9
  1054,'',   115, 1, 1, 1, 1, 1.0042993, -72.428473, 1.1, 0.9, 1.1, 0.9
  1055,'',   115, 1, 1, 1, 1, 1.0111326, -68.483076, 1.1, 0.9, 1.1, 0.9
  1056,'',   115, 1, 1, 1, 1, 1.015, -72.231657, 1.1, 0.9, 1.1, 0.9
  1057,'',    18, 2, 1, 1, 1, 1.015, -72.231657, 1.1, 0.9, 1.1, 0.9
  1058,'',   115, 1, 1, 1, 1, 1.0248321, -67.717255, 1.1, 0.9, 1.1, 0.9
  1059,'',    22, 2, 1, 1, 1, 1.0248321, -67.717255, 1.1, 0.9, 1.1, 0.9
  1060,'',    22, 2, 1, 1, 1, 1.0248321, -67.717255, 1.1, 0.9, 1.1, 0.9
  1061,'',   115, 1, 1, 1, 1, 1.0076555, -68.68209, 1.1, 0.9, 1.1, 0.9
  1062,'',  13.8, 2, 1, 1, 1, 1.0076555, -68.68209, 1.1, 0.9, 1.1, 0.9
  1063,'',  13.8, 2, 1, 1, 1, 1.0076555, -68.68209, 1.1, 0.9, 1.1, 0.9
  1064,'',   115, 1, 1, 1, 1, 0.99611448, -71.799322, 1.1, 0.9, 1.1, 0.9
  1065,'',   115, 1, 1, 1, 1, 1.0023342, -69.517652, 1.1, 0.9, 1.1, 0.9
  1066,'',  13.8, 2, 1, 1, 1, 1, -67.573967, 1.1, 0.9, 1.1, 0.9
  1067,'',   115, 1, 1, 1, 1, 0.99711406, -69.536537, 1.1, 0.9, 1.1, 0.9
  1068,'',   115, 1, 1, 1, 1, 0.99087248, -72.624558, 1.1, 0.9, 1.1, 0.9
  1069,'',   115, 1, 1, 1, 1, 1.0253433, -66.669763, 1.1, 0.9, 1.1, 0.9
  1070,'',  13.8, 2, 1, 1, 1, 1.04, -64.136357, 1.1, 0.9, 1.1, 0.9
  1071,'',   115, 1, 1, 1, 1, 1.0116779, -69.580373, 1.1, 0.9, 1.1, 0.9
  1072,'',    18, 2, 1, 1, 1, 1.01, -66.711984, 1.1, 0.9, 1.1, 0.9
  1073,'',    18, 2, 1, 1, 1, 1.01, -64.813831, 1.1, 0.9, 1.1, 0.9
  1074,'',    18, 2, 1, 1, 1, 1.01, -65.412898, 1.1, 0.9, 1.1, 0.9
  1075,'',    18, 2, 1, 1, 1, 1.01, -66.246333, 1.1, 0.9, 1.1, 0.9
  1076,'',    18, 2, 1, 1, 1, 1.0116779, -69.580373, 1.1, 0.9, 1.1, 0.9
  1077,'',    18, 2, 1, 1, 1, 1.0116779, -69.580373, 1.1, 0.9, 1.1, 0.9
  1078,'',    18, 2, 1, 1, 1, 1.01, -60.66293, 1.1, 0.9, 1.1, 0.9
  1079,'',   500, 2, 1, 1, 1, 1.0492912, -72.039165, 1.1, 0.9, 1.1, 0.9
  1080,'',    18, 2, 1, 1, 1, 1.01, -60.131366, 1.1, 0.9, 1.1, 0.9
  1081,'',   230, 2, 1, 1, 1, 1.0186743, -67.74567, 1.1, 0.9, 1.1, 0.9
  1082,'',   115, 2, 1, 1, 1, 1.0142766, -65.861655, 1.1, 0.9, 1.1, 0.9
  1083,'',   115, 1, 1, 1, 1, 1.015, -67.86562, 1.1, 0.9, 1.1, 0.9
  1084,'',   115, 2, 1, 1, 1, 1.0235701, -66.97946, 1.1, 0.9, 1.1, 0.9
  1085,'',   115, 1, 1, 1, 1, 1.0115357, -64.914693, 1.1, 0.9, 1.1, 0.9
  1086,'',   115, 1, 1, 1, 1, 1.015, -66.819165, 1.1, 0.9, 1.1, 0.9
  1087,'',   115, 1, 1, 1, 1, 1.025673, -69.620253, 1.1, 0.9, 1.1, 0.9
  1088,'',   115, 2, 1, 1, 1, 1, -70.093944, 1.1, 0.9, 1.1, 0.9
  1089,'',   115, 1, 1, 1, 1, 0.99178076, -71.236097, 1.1, 0.9, 1.1, 0.9
  1090,'',   115, 2, 1, 1, 1, 1.02, -65.469408, 1.1, 0.9, 1.1, 0.9
  1091,'',   161, 1, 1, 1, 1, 1.0222662, -73.030548, 1.1, 0.9, 1.1, 0.9
  2001,'',   161, 1, 1, 1, 1, 1.0170342, -81.897789, 1.1, 0.9, 1.1, 0.9
  2002,'',   500, 1, 1, 1, 1, 1.0218857, -82.352143, 1.1, 0.9, 1.1, 0.9
  2003,'',   161, 1, 1, 1, 1, 1.0168061, -83.915639, 1.1, 0.9, 1.1, 0.9
  2004,'',  13.8, 2, 1, 1, 1, 1.0218857, -82.352143, 1.1, 0.9, 1.1, 0.9
  2005,'',  13.8, 2, 1, 1, 1, 1.0218857, -82.352143, 1.1, 0.9, 1.1, 0.9
  2006,'',  13.8, 2, 1, 1, 1, 1.0218857, -82.352143, 1.1, 0.9, 1.1, 0.9
  2007,'',   161, 1, 1, 1, 1, 1.0168894, -81.69288, 1.1, 0.9, 1.1, 0.9
  2008,'',   161, 1, 1, 1, 1, 1.0229328, -74.693562, 1.1, 0.9, 1.1, 0.9
  2009,'',   161, 1, 1, 1, 1, 1.0173456, -76.833113, 1.1, 0.9, 1.1, 0.9
  2010,'',   161, 1, 1, 1, 1, 1.0171241, -75.151742, 1.1, 0.9, 1.1, 0.9
  2011,'',   500, 1, 1, 1, 1, 1.0390353, -72.94882, 1.1, 0.9, 1.1, 0.9
  2012,'',   161, 1, 1, 1, 1, 1.0285003, -72.588268, 1.1, 0.9, 1.1, 0.9
  2013,'',    18, 2, 1, 1, 1, 1.0310093, -71.735062, 1.1, 0.9, 1.1, 0.9
  2014,'',   161, 1, 1, 1, 1, 1.0213346, -75.047763, 1.1, 0.9, 1.1, 0.9
  2015,'',   161, 1, 1, 1, 1, 1.0064081, -84.017024, 1.1, 0.9, 1.1, 0.9
  2016,'',   161, 1, 1, 1, 1, 1.0036209, -87.985012, 1.1, 0.9, 1.1, 0.9
  2017,'',   500, 1, 1, 1, 1, 1.0169435, -72.940179, 1.1, 0.9, 1.1, 0.9
  2018,'',   161, 1, 1, 1, 1, 1.0212891, -72.793578, 1.1, 0.9, 1.1, 0.9
  2019,'',    20, 2, 1, 1, 1, 1.0169435, -72.940179, 1.1, 0.9, 1.1, 0.9
  2020,'',   161, 1, 1, 1, 1, 1.0254042, -76.138035, 1.1, 0.9, 1.1, 0.9
  2021,'',   500, 1, 1, 1, 1, 1.0234031, -79.633958, 1.1, 0.9, 1.1, 0.9
  2022,'',   161, 1, 1, 1, 1, 1.0220671, -80.945999, 1.1, 0.9, 1.1, 0.9
  2023,'',  13.8, 2, 1, 1, 1, 1.020377, -78.073764, 1.1, 0.9, 1.1, 0.9
  2024,'',  13.8, 2, 1, 1, 1, 1.02, -78.011705, 1.1, 0.9, 1.1, 0.9
  2025,'',   161, 1, 1, 1, 1, 1.0250737, -75.701492, 1.1, 0.9, 1.1, 0.9
  2026,'',   161, 1, 1, 1, 1, 1.0300164, -73.07422, 1.1, 0.9, 1.1, 0.9
  2027,'',   161, 1, 1, 1, 1, 1.0181921, -82.182012, 1.1, 0.9, 1.1, 0.9
  2028,'',   161, 1, 1, 1, 1, 1.0194812, -77.387514, 1.1, 0.9, 1.1, 0.9
  2029,'',   161, 1, 1, 1, 1, 1.024209, -74.518999, 1.1, 0.9, 1.1, 0.9
  2030,'',   161, 1, 1, 1, 1, 1.0062356, -84.349062, 1.1, 0.9, 1.1, 0.9
  2031,'',   161, 1, 1, 1, 1, 1.0293102, -71.633573, 1.1, 0.9, 1.1, 0.9
  2032,'',   161, 1, 1, 1, 1, 1.0183178, -81.30486, 1.1, 0.9, 1.1, 0.9
  2033,'',   161, 1, 1, 1, 1, 1.0072199, -85.168833, 1.1, 0.9, 1.1, 0.9
  2034,'',   161, 1, 1, 1, 1, 1.0011734, -87.588295, 1.1, 0.9, 1.1, 0.9
  2035,'',   161, 1, 1, 1, 1, 1.026889, -71.812826, 1.1, 0.9, 1.1, 0.9
  2036,'',   161, 1, 1, 1, 1, 1.0241437, -76.007569, 1.1, 0.9, 1.1, 0.9
  2037,'',   161, 1, 1, 1, 1, 1.0093666, -84.143698, 1.1, 0.9, 1.1, 0.9
  2038,'',   161, 1, 1, 1, 1, 1.0152415, -84.236084, 1.1, 0.9, 1.1, 0.9
  2039,'',   161, 1, 1, 1, 1, 1.006378, -82.441701, 1.1, 0.9, 1.1, 0.9
  2040,'',   161, 1, 1, 1, 1, 1.0215788, -81.454197, 1.1, 0.9, 1.1, 0.9
  2041,'',   161, 1, 1, 1, 1, 1.0252722, -71.885136, 1.1, 0.9, 1.1, 0.9
  2042,'',    18, 2, 1, 1, 1, 1.0166956, -71.164241, 1.1, 0.9, 1.1, 0.9
  2043,'',   161, 1, 1, 1, 1, 1.002116, -87.774118, 1.1, 0.9, 1.1, 0.9
  2044,'',   161, 1, 1, 1, 1, 1.0078135, -84.98738, 1.1, 0.9, 1.1, 0.9
  2045,'',   161, 1, 1, 1, 1, 1.0238297, -76.430853, 1.1, 0.9, 1.1, 0.9
  2046,'',   161, 1, 1, 1, 1, 1.000398, -87.344748, 1.1, 0.9, 1.1, 0.9
  2047,'',   161, 1, 1, 1, 1, 1.0134731, -84.532442, 1.1, 0.9, 1.1, 0.9
  2048,'',   161, 1, 1, 1, 1, 1.0266716, -73.059358, 1.1, 0.9, 1.1, 0.9
  2049,'',   161, 1, 1, 1, 1, 1.0189314, -75.880469, 1.1, 0.9, 1.1, 0.9
  2050,'',   161, 1, 1, 1, 1, 1.0132223, -83.928705, 1.1, 0.9, 1.1, 0.9
  2051,'',   161, 1, 1, 1, 1, 1.013377, -80.218593, 1.1, 0.9, 1.1, 0.9
  2052,'',   161, 1, 1, 1, 1, 1.0232252, -74.099497, 1.1, 0.9, 1.1, 0.9
  2053,'',   161, 1, 1, 1, 1, 1.0084713, -80.753227, 1.1, 0.9, 1.1, 0.9
  2054,'',   500, 1, 1, 1, 1, 1.0318163, -75.034718, 1.1, 0.9, 1.1, 0.9
  2055,'',   161, 1, 1, 1, 1, 1.0283769, -75.601413, 1.1, 0.9, 1.1, 0.9
  2056,'',    18, 2, 1, 1, 1, 1.0318163, -75.034718, 1.1, 0.9, 1.1, 0.9
  2057,'',    18, 2, 1, 1, 1, 1.020583, -73.418909, 1.1, 0.9, 1.1, 0.9
  2058,'',   161, 1, 1, 1, 1, 1.024657, -71.697133, 1.1, 0.9, 1.1, 0.9
  2059,'',  13.8, 2, 1, 1, 1, 1.0143177, -70.044947, 1.1, 0.9, 1.1, 0.9
  2060,'',   161, 1, 1, 1, 1, 1.0141117, -83.056116, 1.1, 0.9, 1.1, 0.9
  2061,'',   161, 1, 1, 1, 1, 1.020709, -74.914951, 1.1, 0.9, 1.1, 0.9
  2062,'',    18, 2, 1, 1, 1, 1.02, -74.076881, 1.1, 0.9, 1.1, 0.9
  2063,'',   161, 1, 1, 1, 1, 1.0007466, -86.913915, 1.1, 0.9, 1.1, 0.9
  2064,'',   161, 1, 1, 1, 1, 1.0178337, -82.001707, 1.1, 0.9, 1.1, 0.9
  2065,'',   161, 1, 1, 1, 1, 1.0038055, -85.226757, 1.1, 0.9, 1.1, 0.9
  2066,'',   161, 1, 1, 1, 1, 1.0285667, -70.030416, 1.1, 0.9, 1.1, 0.9
  2067,'',   161, 1, 1, 1, 1, 1.0224963, -75.628046, 1.1, 0.9, 1.1, 0.9
  2068,'',   161, 1, 1, 1, 1, 1.021287, -74.123608, 1.1, 0.9, 1.1, 0.9
  2069,'',   161, 1, 1, 1, 1, 1.015, -87.26816, 1.1, 0.9, 1.1, 0.9
  2070,'',   161, 1, 1, 1, 1, 1.021976, -73.648852, 1.1, 0.9, 1.1, 0.9
  2071,'',    18, 2, 1, 1, 1, 1.0099338, -71.598679, 1.1, 0.9, 1.1, 0.9
  2072,'',   161, 1, 1, 1, 1, 1.015858, -86.017145, 1.1, 0.9, 1.1, 0.9
  2073,'',   161, 1, 1, 1, 1, 1.0297193, -68.465139, 1.1, 0.9, 1.1, 0.9
  2074,'',   115, 1, 1, 1, 1, 1.0211267, -67.535974, 1.1, 0.9, 1.1, 0.9
  2075,'',   115, 1, 1, 1, 1, 1.0211267, -67.535974, 1.1, 0.9, 1.1, 0.9
  2076,'',    24, 2, 1, 1, 1, 1.0346584, -67.74149, 1.1, 0.9, 1.1, 0.9
  2077,'',   161, 1, 1, 1, 1, 1.0161663, -82.763425, 1.1, 0.9, 1.1, 0.9
  2078,'',  13.8, 2, 1, 1, 1, 1.02, -80.191249, 1.1, 0.9, 1.1, 0.9
  2079,'',   161, 1, 1, 1, 1, 1.0228051, -74.412469, 1.1, 0.9, 1.1, 0.9
  2080,'',   161, 1, 1, 1, 1, 1.0122498, -81.479364, 1.1, 0.9, 1.1, 0.9
  2081,'',   161, 1, 1, 1, 1, 1.0122536, -84.775917, 1.1, 0.9, 1.1, 0.9
  2082,'',   161, 1, 1, 1, 1, 1.0210873, -76.294106, 1.1, 0.9, 1.1, 0.9
  2083,'',    20, 2, 1, 1, 1, 1.02, -74.717228, 1.1, 0.9, 1.1, 0.9
  2084,'',    20, 2, 1, 1, 1, 1.0210873, -76.294106, 1.1, 0.9, 1.1, 0.9
  2085,'',    20, 2, 1, 1, 1, 1.0210873, -76.294106, 1.1, 0.9, 1.1, 0.9
  2086,'',   161, 1, 1, 1, 1, 1.0089447, -82.094056, 1.1, 0.9, 1.1, 0.9
  2087,'',   161, 1, 1, 1, 1, 1.0298861, -70.127142, 1.1, 0.9, 1.1, 0.9
  2088,'',   161, 1, 1, 1, 1, 1.0211949, -73.900047, 1.1, 0.9, 1.1, 0.9
  2089,'',    24, 2, 1, 1, 1, 1.0094619, -72.748965, 1.1, 0.9, 1.1, 0.9
  2090,'',   161, 1, 1, 1, 1, 1.019331, -82.572098, 1.1, 0.9, 1.1, 0.9
  2091,'',   161, 1, 1, 1, 1, 1.022133, -73.854893, 1.1, 0.9, 1.1, 0.9
  2092,'',   161, 1, 1, 1, 1, 1.0063626, -85.777492, 1.1, 0.9, 1.1, 0.9
  2093,'',   161, 1, 1, 1, 1, 1.0256679, -72.691349, 1.1, 0.9, 1.1, 0.9
  2094,'',  13.8, 2, 1, 1, 1, 1.0256679, -72.691349, 1.1, 0.9, 1.1, 0.9
  2095,'',  13.8, 2, 1, 1, 1, 1.0256679, -72.691349, 1.1, 0.9, 1.1, 0.9
  2096,'',   500, 1, 1, 1, 1, 1, -71.234698, 1.1, 0.9, 1.1, 0.9
  2097,'',   230, 1, 1, 1, 1, 1.0033703, -70.883954, 1.1, 0.9, 1.1, 0.9
  2098,'',   161, 1, 1, 1, 1, 1.0203874, -72.670975, 1.1, 0.9, 1.1, 0.9
  2099,'',    18, 2, 1, 1, 1, 1.0007415, -71.22511, 1.1, 0.9, 1.1, 0.9
  2100,'',    18, 2, 1, 1, 1, 1.0134068, -71.054301, 1.1, 0.9, 1.1, 0.9
  2101,'',   500, 1, 1, 1, 1, 1.021234, -82.914178, 1.1, 0.9, 1.1, 0.9
  2102,'',   161, 1, 1, 1, 1, 1.0187528, -83.940704, 1.1, 0.9, 1.1, 0.9
  2103,'',    20, 2, 1, 1, 1, 1.021234, -82.914178, 1.1, 0.9, 1.1, 0.9
  2104,'',    20, 2, 1, 1, 1, 1.021234, -82.914178, 1.1, 0.9, 1.1, 0.9
  2105,'',    20, 2, 1, 1, 1, 1.021234, -82.914178, 1.1, 0.9, 1.1, 0.9
  2106,'',   161, 1, 1, 1, 1, 1.0051392, -85.532814, 1.1, 0.9, 1.1, 0.9
  2107,'',   161, 1, 1, 1, 1, 1.0149596, -84.535774, 1.1, 0.9, 1.1, 0.9
  2108,'',   161, 1, 1, 1, 1, 1.0280476, -74.791587, 1.1, 0.9, 1.1, 0.9
  2109,'',   161, 1, 1, 1, 1, 1.0161757, -77.301733, 1.1, 0.9, 1.1, 0.9
...
0 / END OF BUS DATA, BEGIN LOAD DATA
1001, '1', 1, 1, 1, 16.765, 4.75, 0, 0, 0, 0, 1, 1, 0
1002, '1', 1, 1, 1, 12.435, 3.523, 0, 0, 0, 0, 1, 1, 0
1007, '1', 1, 1, 1, 5.654, 1.602, 0, 0, 0, 0, 1, 1, 0
1012, '1', 1, 1, 1, 2.408, 0.682, 0, 0, 0, 0, 1, 1, 0
1013, '1', 1, 1, 1, 23.578, 6.681, 0, 0, 0, 0, 1, 1, 0
1014, '1', 1, 1, 1, 1.791, 0.507, 0, 0, 0, 0, 1, 1, 0
1015, '1', 1, 1, 1, 6.058, 1.716, 0, 0, 0, 0, 1, 1, 0
1016, '1', 1, 1, 1, 2.331, 0.66, 0, 0, 0, 0, 1, 1, 0
1017, '1', 1, 1, 1, 14.8, 4.193, 0, 0, 0, 0, 1, 1, 0
1018, '1', 1, 1, 1, 0.056, 0.016, 0, 0, 0, 0, 1, 1, 0
1019, '1', 1, 1, 1, 49.837, 14.12, 0, 0, 0, 0, 1, 1, 0
1024, '1', 1, 1, 1, 50.856, 14.409, 0, 0, 0, 0, 1, 1, 0
1027, '1', 1, 1, 1, 81.65, 23.135, 0, 0, 0, 0, 1, 1, 0
1028, '1', 1, 1, 1, 8.078, 2.289, 0, 0, 0, 0, 1, 1, 0
1029, '1', 1, 1, 1, 67.108, 19.014, 0, 0, 0, 0, 1, 1, 0
1030, '1', 1, 1, 1, 19.867, 5.629, 0, 0, 0, 0, 1, 1, 0
1031, '1', 1, 1, 1, 7.459, 2.113, 0, 0, 0, 0, 1, 1, 0
1036, '1', 1, 1, 1, 10.968, 3.107, 0, 0, 0, 0, 1, 1, 0
1037, '1', 1, 1, 1, 82.478, 23.369, 0, 0, 0, 0, 1, 1, 0
1040, '1', 1, 1, 1, 35.785, 10.139, 0, 0, 0, 0, 1, 1, 0
1044, '1', 1, 1, 1, 11.845, 3.356, 0, 0, 0, 0, 1, 1, 0
1045, '1', 1, 1, 1, 79.514, 22.529, 0, 0, 0, 0, 1, 1, 0
1046, '1', 1, 1, 1, 8.943, 2.533, 0, 0, 0, 0, 1, 1, 0
1054, '1', 1, 1, 1, 12.092, 3.426, 0, 0, 0, 0, 1, 1, 0
1055, '1', 1, 1, 1, 3.209, 0.909, 0, 0, 0, 0, 1, 1, 0
1058, '1', 1, 1, 1, 10.854, 3.076, 0, 0, 0, 0, 1, 1, 0
1064, '1', 1, 1, 1, 99.841, 28.289, 0, 0, 0, 0, 1, 1, 0
1067, '1', 1, 1, 1, 81.924, 23.212, 0, 0, 0, 0, 1, 1, 0
1068, '1', 1, 1, 1, 47.923, 13.578, 0, 0, 0, 0, 1, 1, 0
1071, '1', 1, 1, 1, 73.787, 20.906, 0, 0, 0, 0, 1, 1, 0
1083, '1', 1, 1, 1, 32.225, 9.13, 0, 0, 0, 0, 1, 1, 0
1085, '1', 1, 1, 1, 17.181, 4.868, 0, 0, 0, 0, 1, 1, 0
1086, '1', 1, 1, 1, 32.005, 9.068, 0, 0, 0, 0, 1, 1, 0
1087, '1', 1, 1, 1, 0.733, 0.208, 0, 0, 0, 0, 1, 1, 0
1089, '1', 1, 1, 1, 32.757, 9.281, 0, 0, 0, 0, 1, 1, 0
1091, '1', 1, 1, 1, 9.376, 2.656, 0, 0, 0, 0, 1, 1, 0
2001, '1', 1, 1, 1, 35.977, 10.194, 0, 0, 0, 0, 1, 1, 0
2007, '1', 1, 1, 1, 7.098, 2.011, 0, 0, 0, 0, 1, 1, 0
2008, '1', 1, 1, 1, 5.997, 1.699, 0, 0, 0, 0, 1, 1, 0
2009, '1', 1, 1, 1, 29.116, 8.25, 0, 0, 0, 0, 1, 1, 0
2010, '1', 1, 1, 1, 42.263, 11.973, 0, 0, 0, 0, 1, 1, 0
2014, '1', 1, 1, 1, 18.918, 5.36, 0, 0, 0, 0, 1, 1, 0
2015, '1', 1, 1, 1, 3.486, 0.988, 0, 0, 0, 0, 1, 1, 0
2016, '1', 1, 1, 1, 51.534, 14.601, 0, 0, 0, 0, 1, 1, 0
2020, '1', 1, 1, 1, 35.692, 10.113, 0, 0, 0, 0, 1, 1, 0
2022, '1', 1, 1, 1, 8.604, 2.438, 0, 0, 0, 0, 1, 1, 0
2025, '1', 1, 1, 1, 29.476, 8.351, 0, 0, 0, 0, 1, 1, 0
2026, '1', 1, 1, 1, 13.816, 3.914, 0, 0, 0, 0, 1, 1, 0
2027, '1', 1, 1, 1, 2.645, 0.749, 0, 0, 0, 0, 1, 1, 0
2028, '1', 1, 1, 1, 10.593, 3.001, 0, 0, 0, 0, 1, 1, 0
2029, '1', 1, 1, 1, 2.382, 0.675, 0, 0, 0, 0, 1, 1, 0
2030, '1', 1, 1, 1, 35.076, 9.938, 0, 0, 0, 0, 1, 1, 0
2031, '1', 1, 1, 1, 4.29, 1.216, 0, 0, 0, 0, 1, 1, 0
2032, '1', 1, 1, 1, 2.495, 0.707, 0, 0, 0, 0, 1, 1, 0
2033, '1', 1, 1, 1, 10.098, 2.861, 0, 0, 0, 0, 1, 1, 0
2034, '1', 1, 1, 1, 3.973, 1.126, 0, 0, 0, 0, 1, 1, 0
2035, '1', 1, 1, 1, 3.484, 0.988, 0, 0, 0, 0, 1, 1, 0
2036, '1', 1, 1, 1, 30.94, 8.766, 0, 0, 0, 0, 1, 1, 0
2037, '1', 1, 1, 1, 2.604, 0.738, 0, 0, 0, 0, 1, 1, 0
2038, '1', 1, 1, 1, 1.937, 0.549, 0, 0, 0, 0, 1, 1, 0
2039, '1', 1, 1, 1, 4.136, 1.172, 0, 0, 0, 0, 1, 1, 0
2040, '1', 1, 1, 1, 11.832, 3.352, 0, 0, 0, 0, 1, 1, 0
2043, '1', 1, 1, 1, 3.152, 0.893, 0, 0, 0, 0, 1, 1, 0
2044, '1', 1, 1, 1, 20.389, 5.777, 0, 0, 0, 0, 1, 1, 0
2045, '1', 1, 1, 1, 16.818, 4.765, 0, 0, 0, 0, 1, 1, 0
2046, '1', 1, 1, 1, 16.468, 4.666, 0, 0, 0, 0, 1, 1, 0
2047, '1', 1, 1, 1, 11.127, 3.152, 0, 0, 0, 0, 1, 1, 0
2048, '1', 1, 1, 1, 4.774, 1.353, 0, 0, 0, 0, 1, 1, 0
2049, '1', 1, 1, 1, 8.609, 2.439, 0, 0, 0, 0, 1, 1, 0
2050, '1', 1, 1, 1, 2.721, 0.771, 0, 0, 0, 0, 1, 1, 0
2051, '1', 1, 1, 1, 13.28, 3.763, 0, 0, 0, 0, 1, 1, 0
2052, '1', 1, 1, 1, 18.478, 5.236, 0, 0, 0, 0, 1, 1, 0
2053, '1', 1, 1, 1, 21.675, 6.141, 0, 0, 0, 0, 1, 1, 0
2055, '1', 1, 1, 1, 36.917, 10.46, 0, 0, 0, 0, 1, 1, 0
2060, '1', 1, 1, 1, 2.823, 0.8, 0, 0, 0, 0, 1, 1, 0
2063, '1', 1, 1, 1, 48.818, 13.832, 0, 0, 0, 0, 1, 1, 0
2064, '1', 1, 1, 1, 7.475, 2.118, 0, 0, 0, 0, 1, 1, 0
2065, '1', 1, 1, 1, 58.3, 16.518, 0, 0, 0, 0, 1, 1, 0
2066, '1', 1, 1, 1, 5.291, 1.5, 0, 0, 0, 0, 1, 1, 0
2067, '1', 1, 1, 1, 40.151, 11.376, 0, 0, 0, 0, 1, 1, 0
2068, '1', 1, 1, 1, 4.285, 1.214, 0, 0, 0, 0, 1, 1, 0
2069, '1', 1, 1, 1, 16.311, 4.622, 0, 0, 0, 0, 1, 1, 0
2072, '1', 1, 1, 1, 7.22, 2.046, 0, 0, 0, 0, 1, 1, 0
2079, '1', 1, 1, 1, 3.332, 0.944, 0, 0, 0, 0, 1, 1, 0
2080, '1', 1, 1, 1, 12.597, 3.569, 0, 0, 0, 0, 1, 1, 0
2081, '1', 1, 1, 1, 3.321, 0.941, 0, 0, 0, 0, 1, 1, 0
2082, '1', 1, 1, 1, 43.919, 12.444, 0, 0, 0, 0, 1, 1, 0
2086, '1', 1, 1, 1, 1.632, 0.462, 0, 0, 0, 0, 1, 1, 0
2087, '1', 1, 1, 1, 5.875, 1.664, 0, 0, 0, 0, 1, 1, 0
2090, '1', 1, 1, 1, 1.803, 0.511, 0, 0, 0, 0, 1, 1, 0
2091, '1', 1, 1, 1, 12.682, 3.593, 0, 0, 0, 0, 1, 1, 0
2092, '1', 1, 1, 1, 17.936, 5.082, 0, 0, 0, 0, 1, 1, 0
2106, '1', 1, 1, 1, 10.716, 3.036, 0, 0, 0, 0, 1, 1, 0
2107, '1', 1, 1, 1, 55.168, 15.631, 0, 0, 0, 0, 1, 1, 0
2108, '1', 1, 1, 1, 1.596, 0.452, 0, 0, 0, 0, 1, 1, 0
2109, '1', 1, 1, 1, 25.155, 7.127, 0, 0, 0, 0, 1, 1, 0
2110, '1', 1, 1, 1, 6.39, 1.811, 0, 0, 0, 0, 1, 1, 0
2111, '1', 1, 1, 1, 10.381, 2.941, 0, 0, 0, 0, 1, 1, 0
2112, '1', 1, 1, 1, 3.379, 0.957, 0, 0, 0, 0, 1, 1, 0
2114, '1', 1, 1, 1, 52.657, 14.92, 0, 0, 0, 0, 1, 1, 0
2121, '1', 1, 1, 1, 1.736, 0.492, 0, 0, 0, 0, 1, 1, 0
2122, '1', 1, 1, 1, 5.002, 1.417, 0, 0, 0, 0, 1, 1, 0
2124, '1', 1, 1, 1, 15.836, 4.487, 0, 0, 0, 0, 1, 1, 0
2125, '1', 1, 1, 1, 3.018, 0.855, 0, 0, 0, 0, 1, 1, 0
2126, '1', 1, 1, 1, 10.591, 3.001, 0, 0, 0, 0, 1, 1, 0
2129, '1', 1, 1, 1, 4.935, 1.398, 0, 0, 0, 0, 1, 1, 0
2132, '1', 1, 1, 1, 8.883, 2.517, 0, 0, 0, 0, 1, 1, 0
2133, '1', 1, 1, 1, 4.225, 1.197, 0, 0, 0, 0, 1, 1, 0
3002, '1', 1, 1, 1, 79.251, 22.454, 0, 0, 0, 0, 1, 1, 0
3005, '1', 1, 1, 1, 5.154, 1.461, 0, 0, 0, 0, 1, 1, 0
3006, '1', 1, 1, 1, 5.159, 1.462, 0, 0, 0, 0, 1, 1, 0
3007, '1', 1, 1, 1, 10.508, 2.977, 0, 0, 0, 0, 1, 1, 0
3008, '1', 1, 1, 1, 13.91, 3.941, 0, 0, 0, 0, 1, 1, 0
3009, '1', 1, 1, 1, 8.806, 2.495, 0, 0, 0, 0, 1, 1, 0
3010, '1', 1, 1, 1, 3.28, 0.929, 0, 0, 0, 0, 1, 1, 0
3011, '1', 1, 1, 1, 19.057, 5.399, 0, 0, 0, 0, 1, 1, 0
3012, '1', 1, 1, 1, 0.396, 0.112, 0, 0, 0, 0, 1, 1, 0
3013, '1', 1, 1, 1, 45.332, 12.844, 0, 0, 0, 0, 1, 1, 0
3014, '1', 1, 1, 1, 15.45, 4.377, 0, 0, 0, 0, 1, 1, 0
3015, '1', 1, 1, 1, 3.767, 1.067, 0, 0, 0, 0, 1, 1, 0
3021, '1', 1, 1, 1, 1.363, 0.386, 0, 0, 0, 0, 1, 1, 0
3022, '1', 1, 1, 1, 17.268, 4.893, 0, 0, 0, 0, 1, 1, 0
3023, '1', 1, 1, 1, 7.308, 2.071, 0, 0, 0, 0, 1, 1, 0
3024, '1', 1, 1, 1, 7.114, 2.016, 0, 0, 0, 0, 1, 1, 0
3025, '1', 1, 1, 1, 9.602, 2.721, 0, 0, 0, 0, 1, 1, 0
3029, '1', 1, 1, 1, 3.417, 0.968, 0, 0, 0, 0, 1, 1, 0
3030, '1', 1, 1, 1, 91.09, 25.809, 0, 0, 0, 0, 1, 1, 0
3031, '1', 1, 1, 1, 10.346, 2.931, 0, 0, 0, 0, 1, 1, 0
3032, '1', 1, 1, 1, 51.165, 14.497, 0, 0, 0, 0, 1, 1, 0
3035, '1', 1, 1, 1, 2.433, 0.689, 0, 0, 0, 0, 1, 1, 0
3036, '1', 1, 1, 1, 4.074, 1.154, 0, 0, 0, 0, 1, 1, 0
3040, '1', 1, 1, 1, 10.257, 2.906, 0, 0, 0, 0, 1, 1, 0
3042, '1', 1, 1, 1, 6.147, 1.742, 0, 0, 0, 0, 1, 1, 0
3049, '1', 1, 1, 1, 7.432, 2.106, 0, 0, 0, 0, 1, 1, 0
3051, '1', 1, 1, 1, 102.023, 28.907, 0, 0, 0, 0, 1, 1, 0
3052, '1', 1, 1, 1, 5.671, 1.607, 0, 0, 0, 0, 1, 1, 0
3066, '1', 1, 1, 1, 15.473, 4.384, 0, 0, 0, 0, 1, 1, 0
3069, '1', 1, 1, 1, 2.677, 0.759, 0, 0, 0, 0, 1, 1, 0
3072, '1', 1, 1, 1, 4.203, 1.191, 0, 0, 0, 0, 1, 1, 0
3075, '1', 1, 1, 1, 8.555, 2.424, 0, 0, 0, 0, 1, 1, 0
3076, '1', 1, 1, 1, 7.58, 2.148, 0, 0, 0, 0, 1, 1, 0
3077, '1', 1, 1, 1, 48.21, 13.659, 0, 0, 0, 0, 1, 1, 0
3093, '1', 1, 1, 1, 3.543, 1.004, 0, 0, 0, 0, 1, 1, 0
3099, '1', 1, 1, 1, 8.481, 2.403, 0, 0, 0, 0, 1, 1, 0
3100, '1', 1, 1, 1, 5.987, 1.696, 0, 0, 0, 0, 1, 1, 0
3101, '1', 1, 1, 1, 6.623, 1.877, 0, 0, 0, 0, 1, 1, 0
3102, '1', 1, 1, 1, 52.844, 14.973, 0, 0, 0, 0, 1, 1, 0
3103, '1', 1, 1, 1, 27.609, 7.822, 0, 0, 0, 0, 1, 1, 0
3107, '1', 1, 1, 1, 10.44, 2.958, 0, 0, 0, 0, 1, 1, 0
3108, '1', 1, 1, 1, 16.518, 4.68, 0, 0, 0, 0, 1, 1, 0
3114, '1', 1, 1, 1, 69.031, 19.558, 0, 0, 0, 0, 1, 1, 0
3115, '1', 1, 1, 1, 6.724, 1.905, 0, 0, 0, 0, 1, 1, 0
3123, '1', 1, 1, 1, 46.392, 13.144, 0, 0, 0, 0, 1, 1, 0
3124, '1', 1, 1, 1, 45.319, 12.841, 0, 0, 0, 0, 1, 1, 0
3125, '1', 1, 1, 1, 64.081, 18.156, 0, 0, 0, 0, 1, 1, 0
3126, '1', 1, 1, 1, 6.992, 1.981, 0, 0, 0, 0, 1, 1, 0
3128, '1', 1, 1, 1, 1.98, 0.561, 0, 0, 0, 0, 1, 1, 0
3130, '1', 1, 1, 1, 64.711, 18.335, 0, 0, 0, 0, 1, 1, 0
3132, '1', 1, 1, 1, 6.716, 1.903, 0, 0, 0, 0, 1, 1, 0
3136, '1', 1, 1, 1, 32.973, 9.342, 0, 0, 0, 0, 1, 1, 0
3138, '1', 1, 1, 1, 7.687, 2.178, 0, 0, 0, 0, 1, 1, 0
3139, '1', 1, 1, 1, 10.474, 2.967, 0, 0, 0, 0, 1, 1, 0
3140, '1', 1, 1, 1, 0.156, 0.044, 0, 0, 0, 0, 1, 1, 0
3142, '1', 1, 1, 1, 4.963, 1.407, 0, 0, 0, 0, 1, 1, 0
3143, '1', 1, 1, 1, 4.04, 1.145, 0, 0, 0, 0, 1, 1, 0
3144, '1', 1, 1, 1, 3.901, 1.106, 0, 0, 0, 0, 1, 1, 0
3145, '1', 1, 1, 1, 2.065, 0.585, 0, 0, 0, 0, 1, 1, 0
3146, '1', 1, 1, 1, 8.451, 2.395, 0, 0, 0, 0, 1, 1, 0
3147, '1', 1, 1, 1, 24.407, 6.915, 0, 0, 0, 0, 1, 1, 0
4002, '1', 1, 1, 1, 0.761, 0.216, 0, 0, 0, 0, 1, 1, 0
4003, '1', 1, 1, 1, 96.076, 27.222, 0, 0, 0, 0, 1, 1, 0
4005, '1', 1, 1, 1, 123.886, 35.101, 0, 0, 0, 0, 1, 1, 0
4006, '1', 1, 1, 1, 2.078, 0.589, 0, 0, 0, 0, 1, 1, 0
4007, '1', 1, 1, 1, 138.618, 39.275, 0, 0, 0, 0, 1, 1, 0
4008, '1', 1, 1, 1, 24.525, 6.949, 0, 0, 0, 0, 1, 1, 0
4011, '1', 1, 1, 1, 12.114, 3.432, 0, 0, 0, 0, 1, 1, 0
4012, '1', 1, 1, 1, 10.37, 2.938, 0, 0, 0, 0, 1, 1, 0
4013, '1', 1, 1, 1, 69.702, 19.749, 0, 0, 0, 0, 1, 1, 0
4015, '1', 1, 1, 1, 120.617, 34.175, 0, 0, 0, 0, 1, 1, 0
4016, '1', 1, 1, 1, 4.714, 1.336, 0, 0, 0, 0, 1, 1, 0
4017, '1', 1, 1, 1, 67.598, 19.153, 0, 0, 0, 0, 1, 1, 0
4018, '1', 1, 1, 1, 5.387, 1.526, 0, 0, 0, 0, 1, 1, 0
4019, '1', 1, 1, 1, 102.518, 29.046, 0, 0, 0, 0, 1, 1, 0
4020, '1', 1, 1, 1, 88.921, 25.194, 0, 0, 0, 0, 1, 1, 0
4021, '1', 1, 1, 1, 24.131, 6.837, 0, 0, 0, 0, 1, 1, 0
4022, '1', 1, 1, 1, 4.2, 1.19, 0, 0, 0, 0, 1, 1, 0
4023, '1', 1, 1, 1, 3.822, 1.083, 0, 0, 0, 0, 1, 1, 0
4027, '1', 1, 1, 1, 49.149, 13.925, 0, 0, 0, 0, 1, 1, 0
4031, '1', 1, 1, 1, 2.074, 0.588, 0, 0, 0, 0, 1, 1, 0
4032, '1', 1, 1, 1, 68.977, 19.544, 0, 0, 0, 0, 1, 1, 0
4033, '1', 1, 1, 1, 95.288, 26.998, 0, 0, 0, 0, 1, 1, 0
4034, '1', 1, 1, 1, 28.41, 8.05, 0, 0, 0, 0, 1, 1, 0
4035, '1', 1, 1, 1, 59.748, 16.929, 0, 0, 0, 0, 1, 1, 0
4036, '1', 1, 1, 1, 26.469, 7.5, 0, 0, 0, 0, 1, 1, 0
4037, '1', 1, 1, 1, 21.678, 6.142, 0, 0, 0, 0, 1, 1, 0
4038, '1', 1, 1, 1, 62.875, 17.814, 0, 0, 0, 0, 1, 1, 0
4040, '1', 1, 1, 1, 170.322, 48.258, 0, 0, 0, 0, 1, 1, 0
4042, '1', 1, 1, 1, 162.408, 46.015, 0, 0, 0, 0, 1, 1, 0
4043, '1', 1, 1, 1, 1.868, 0.529, 0, 0, 0, 0, 1, 1, 0
4048, '1', 1, 1, 1, 9.89, 2.802, 0, 0, 0, 0, 1, 1, 0
...
0 / END OF LOAD DATA, BEGIN FIXED SHUNT DATA
2017, '1', 1, 0, -100
2096, '1', 1, 0, -100
8005, '1', 1, 0, 18.287
0 / END OF FIXED SHUNT DATA, BEGIN GENERATOR DATA
1004, '1', 70.1, -30.38, 44.94, -30.38, 1.0206561, 0, 0, 0, 1.0, 0, 0, 1, 1, 1, 70.1, 0, 1, 1, 0, 1, 0, 1, 0, 1, 0, 1
1006, '1', 21.4, -4.94, 7.31, -4.94, 1, 0, 0, 0, 1.0, 0, 0, 1, 1, 1, 21.4, 0, 1, 1, 0, 1, 0, 1, 0, 1, 0, 1
1009, '1', 11.6, -11.88, 17.57, -11.88, 1.0099394, 0, 0, 0, 1.0, 0, 0, 1, 1, 1, 11.6, 0, 1, 1, 0, 1, 0, 1, 0, 1, 0, 1
1011, '1', 2.7, 0, 0, 0, 1.044434, 0, 0, 0, 1.0, 0, 0, 1, 1, 1, 2.7, 0, 1, 1, 0, 1, 0, 1, 0, 1, 0, 1
1021, '1', 71.3, -28.73, 42.49, -28.73, 1, 0, 0, 0, 1.0, 0, 0, 1, 1, 1, 71.3, 0, 1, 1, 0, 1, 0, 1, 0, 1, 0, 1
1023, '1', 16.5, -25.92, 38.34, -25.92, 1.01, 0, 0, 0, 1.0, 0, 0, 1, 1, 1, 16.5, 0, 1, 1, 0, 1, 0, 1, 0, 1, 0, 1
1026, '1', 47.1, -17.88, 26.45, -17.88, 1, 0, 0, 0, 1.0, 0, 0, 1, 1, 1, 47.1, 0, 1, 1, 0, 1, 0, 1, 0, 1, 0, 1
1033, '1', 75.2, -40.03, 59.21, -40.03, 1.0136166, 0, 0, 0, 1.0, 0, 0, 1, 1, 1, 75.2, 0, 1, 1, 0, 1, 0, 1, 0, 1, 0, 1
1035, '1', 41.1, -12.96, 19.17, -12.96, 1, 0, 0, 0, 1.0, 0, 0, 1, 1, 1, 41.1, 0, 1, 1, 0, 1, 0, 1, 0, 1, 0, 1
1039, '1', 1.1, -21.24, 31.42, -21.24, 1, 0, 0, 0, 1.0, 0, 0, 1, 1, 1, 1.1, 0, 1, 1, 0, 1, 0, 1, 0, 1, 0, 1
1042, '1', 47.384, -1.729, 25.96, -17.55, 0.99989257, 0, 0, 0, 1.0, 0, 0, 1, 0, 1, 48.9, 0, 1, 1, 0, 1, 0, 1, 0, 1, 0, 1
1043, '1', 23.6, -8.47, 12.52, -8.47, 1, 0, 0, 0, 1.0, 0, 0, 1, 1, 1, 23.6, 0, 1, 1, 0, 1, 0, 1, 0, 1, 0, 1
1048, '1', 0, -9.473, 165.53, -36.1, 1.0087762, 0, 0, 0, 1.0, 0, 0, 1, 0, 1, 325.2, 97.56, 1, 1, 0, 1, 0, 1, 0, 1, 0, 1
1049, '1', 0, -0.955, 165.53, -36.1, 1.0087762, 0, 0, 0, 1.0, 0, 0, 1, 0, 1, 325.2, 97.56, 1, 1, 0, 1, 0, 1, 0, 1, 0, 1
1050, '1', 89.4, -9.92, 45.5, -9.92, 1, 0, 0, 0, 1.0, 0, 0, 1, 1, 1, 89.4, 26.82, 1, 1, 0, 1, 0, 1, 0, 1, 0, 1
1051, '1', 89.4, -9.92, 45.5, -9.92, 1, 0, 0, 0, 1.0, 0, 0, 1, 1, 1, 89.4, 26.82, 1, 1, 0, 1, 0, 1, 0, 1, 0, 1
1052, '1', 89.4, -9.92, 45.5, -9.92, 1.0011509, 0, 0, 0, 1.0, 0, 0, 1, 1, 1, 89.4, 26.82, 1, 1, 0, 1, 0, 1, 0, 1, 0, 1
1053, '1', 53.851, -19.85, 91.01, -19.85, 1.0171788, 0, 0, 0, 1.0, 0, 0, 1, 0, 1, 178.8, 53.64, 1, 1, 0, 1, 0, 1, 0, 1, 0, 1
1057, '1', 20.008, -11.647, 25.56, -17.28, 1.015, 0, 0, 0, 1.0, 0, 0, 1, 0, 1, 21.5, 0, 1, 1, 0, 1, 0, 1, 0, 1, 0, 1
1059, '1', 5.53, 2.85, 2.85, -0.62, 1.0249361, 0, 0, 0, 1.0, 0, 0, 1, 0, 1, 5.6, 1.68, 1, 1, 0, 1, 0, 1, 0, 1, 0, 1
1060, '1', 1.976, 1.02, 1.02, -0.22, 1.0249361, 0, 0, 0, 1.0, 0, 0, 1, 0, 1, 2, 0.6, 1, 1, 0, 1, 0, 1, 0, 1, 0, 1
1062, '1', 1.482, 0, 0, 0, 1.0076659, 0, 0, 0, 1.0, 0, 0, 1, 0, 1, 1.5, 0.45, 1, 1, 0, 1, 0, 1, 0, 1, 0, 1
1063, '1', 167.605, 0, 0, 0, 1.0076659, 0, 0, 0, 1.0, 0, 0, 1, 0, 1, 230, 69, 1, 1, 0, 1, 0, 1, 0, 1, 0, 1
1066, '1', 27.5, -20.52, 30.35, -20.52, 1, 0, 0, 0, 1.0, 0, 0, 1, 1, 1, 27.5, 0, 1, 1, 0, 1, 0, 1, 0, 1, 0, 1
1070, '1', 68.2, -23.11, 34.19, -23.11, 1.04, 0, 0, 0, 1.0, 0, 0, 1, 1, 1, 68.2, 0, 1, 1, 0, 1, 0, 1, 0, 1, 0, 1
1072, '1', 59.539325, -21.33, 97.8, -21.33, 1.01, 0, 0, 0, 1.0, 0, 0, 1, 1, 1, 192.13, 57.64, 1, 1, 0, 1, 0, 1, 0, 1, 0, 1
1073, '1', 59.539325, -21.33, 97.8, -21.33, 1.01, 0, 0, 0, 1.0, 0, 0, 1, 1, 1, 192.13, 57.64, 1, 1, 0, 1, 0, 1, 0, 1, 0, 1
1074, '1', 59.539325, -21.33, 97.8, -21.33, 1.01, 0, 0, 0, 1.0, 0, 0, 1, 1, 1, 192.13, 57.64, 1, 1, 0, 1, 0, 1, 0, 1, 0, 1
1075, '1', 59.539325, -21.33, 97.8, -21.33, 1.01, 0, 0, 0, 1.0, 0, 0, 1, 1, 1, 192.13, 57.64, 1, 1, 0, 1, 0, 1, 0, 1, 0, 1
1076, '1', 117.287, 12.95, 97.8, -21.33, 1.0112267, 0, 0, 0, 1.0, 0, 0, 1, 0, 1, 192.13, 57.64, 1, 1, 0, 1, 0, 1, 0, 1, 0, 1
1077, '1', 110.026, 6.638, 97.8, -21.33, 1.0112267, 0, 0, 0, 1.0, 0, 0, 1, 0, 1, 192.13, 57.64, 1, 1, 0, 1, 0, 1, 0, 1, 0, 1
1078, '1', 83.074077, -10.6, 48.61, -10.6, 1.01, 0, 0, 0, 1.0, 0, 0, 1, 1, 1, 95.5, 28.65, 1, 1, 0, 1, 0, 1, 0, 1, 0, 1
1079, '1', 83.074077, -10.6, 48.61, -10.6, 1.04883, 0, 0, 0, 1.0, 0, 0, 1, 1, 1, 95.5, 28.65, 1, 1, 0, 1, 0, 1, 0, 1, 0, 1
1080, '1', 83.074077, -10.6, 48.61, -10.6, 1.01, 0, 0, 0, 1.0, 0, 0, 1, 1, 1, 95.5, 28.65, 1, 1, 0, 1, 0, 1, 0, 1, 0, 1
1081, '1', 0, -23.361, 145.83, -31.8, 1.0184366, 0, 0, 0, 1.0, 0, 0, 1, 0, 1, 286.5, 85.95, 1, 1, 0, 1, 0, 1, 0, 1, 0, 1
1082, '1', 58, -21.6, 31.95, -21.6, 1.0142766, 0, 0, 0, 1.0, 0, 0, 1, 1, 1, 58, 0, 1, 1, 0, 1, 0, 1, 0, 1, 0, 1
1084, '1', 49.4, -16.63, 24.6, -16.63, 1.0236157, 0, 0, 0, 1.0, 0, 0, 1, 1, 1, 49.4, 0, 1, 1, 0, 1, 0, 1, 0, 1, 0, 1
1088, '1', 14.4, -10.8, 15.97, -10.8, 1, 0, 0, 0, 1.0, 0, 0, 1, 1, 1, 14.4, 0, 1, 1, 0, 1, 0, 1, 0, 1, 0, 1
1090, '1', 93.2, -21.96, 32.48, -21.96, 1.02, 0, 0, 0, 1.0, 0, 0, 1, 1, 1, 93.2, 0, 1, 1, 0, 1, 0, 1, 0, 1, 0, 1
1090, '2', 22, -5.18, 7.67, -5.18, 1.02, 0, 0, 0, 1.0, 0, 0, 1, 1, 1, 22, 0, 1, 1, 0, 1, 0, 1, 0, 1, 0, 1
2004, '1', 0, 0, 199.43, -43.49, 1.0217982, 0, 0, 0, 1.0, 0, 0, 1, 0, 1, 391.8, 117.54, 1, 1, 0, 1, 0, 1, 0, 1, 0, 1
2005, '1', 0, 0, 199.43, -43.49, 1.0217982, 0, 0, 0, 1.0, 0, 0, 1, 0, 1, 391.8, 117.54, 1, 1, 0, 1, 0, 1, 0, 1, 0, 1
2006, '1', 0, 0, 199.43, -43.49, 1.0217982, 0, 0, 0, 1.0, 0, 0, 1, 0, 1, 391.8, 117.54, 1, 1, 0, 1, 0, 1, 0, 1, 0, 1
2013, '1', 77.9, -28.89, 42.73, -28.89, 1.0310049, 0, 0, 0, 1.0, 0, 0, 1, 1, 1, 77.9, 0, 1, 1, 0, 1, 0, 1, 0, 1, 0, 1
2019, '1', 21.889, 34.272, 46.43, -31.39, 1.0169337, 0, 0, 0, 1.0, 0, 0, 1, 0, 1, 24.6, 0, 1, 1, 0, 1, 0, 1, 0, 1, 0, 1
2023, '1', 83.33, -9.25, 42.42, -9.25, 1.0203449, 0, 0, 0, 1.0, 0, 0, 1, 1, 1, 83.33, 25, 1, 1, 0, 1, 0, 1, 0, 1, 0, 1
2024, '1', 121.64964, -18.5, 84.83, -18.5, 1.02, 0, 0, 0, 1.0, 0, 0, 1, 1, 1, 166.67, 50, 1, 1, 0, 1, 0, 1, 0, 1, 0, 1
2042, '1', 16.4, -11.46, 16.95, -11.46, 1.0166745, 0, 0, 0, 1.0, 0, 0, 1, 1, 1, 16.4, 0, 1, 1, 0, 1, 0, 1, 0, 1, 0, 1
2056, '1', 5.925, -0.73, 2.8, -0.73, 1.0314192, 0, 0, 0, 1.0, 0, 0, 1, 0, 1, 6, 1.8, 1, 1, 0, 1, 0, 1, 0, 1, 0, 1
2057, '1', 223.11765, -87.84, 335.52, -87.84, 1.0202077, 0, 0, 0, 1.0, 0, 0, 1, 1, 1, 720, 216, 1, 1, 0, 1, 0, 1, 0, 1, 0, 1
2059, '1', 29.1, -11.52, 17.04, -11.52, 1.0142973, 0, 0, 0, 1.0, 0, 0, 1, 1, 1, 29.1, 0, 1, 1, 0, 1, 0, 1, 0, 1, 0, 1
2062, '1', 37, -19.5, 28.84, -19.5, 1.02, 0, 0, 0, 1.0, 0, 0, 1, 1, 1, 37, 0, 1, 1, 0, 1, 0, 1, 0, 1, 0, 1
2071, '1', 64.2, -21.6, 31.95, -21.6, 1.0095496, 0, 0, 0, 1.0, 0, 0, 1, 1, 1, 64.2, 0, 1, 1, 0, 1, 0, 1, 0, 1, 0, 1
2076, '1', 18.5, -4.32, 6.39, -4.32, 1.0346584, 0, 0, 0, 1.0, 0, 0, 1, 1, 1, 18.5, 0, 1, 1, 0, 1, 0, 1, 0, 1, 0, 1
2078, '1', 65.3, -16.2, 23.96, -16.2, 1.02, 0, 0, 0, 1.0, 0, 0, 1, 1, 1, 65.3, 0, 1, 1, 0, 1, 0, 1, 0, 1, 0, 1
2083, '1', 20, -2.22, 10.18, -2.22, 1.02, 0, 0, 0, 1.0, 0, 0, 1, 1, 1, 20, 6, 1, 1, 0, 1, 0, 1, 0, 1, 0, 1
2084, '1', 19.751, -0.265, 10.18, -2.22, 1.0207734, 0, 0, 0, 1.0, 0, 0, 1, 0, 1, 20, 6, 1, 1, 0, 1, 0, 1, 0, 1, 0, 1
2085, '1', 39.503, -0.679, 20.36, -4.44, 1.0207734, 0, 0, 0, 1.0, 0, 0, 1, 0, 1, 40, 12, 1, 1, 0, 1, 0, 1, 0, 1, 0, 1
2089, '1', 16.5, -9.73, 14.4, -9.73, 1.0090781, 0, 0, 0, 1.0, 0, 0, 1, 1, 1, 16.5, 0, 1, 1, 0, 1, 0, 1, 0, 1, 0, 1
2094, '1', 2.176, -1.44, 2.13, -1.44, 1.0256521, 0, 0, 0, 1.0, 0, 0, 1, 0, 1, 2.3, 0, 1, 1, 0, 1, 0, 1, 0, 1, 0, 1
2095, '1', 17.511, -11.45, 16.93, -11.45, 1.0256521, 0, 0, 0, 1.0, 0, 0, 1, 0, 1, 18.5, 0, 1, 1, 0, 1, 0, 1, 0, 1, 0, 1
2099, '1', 0.5, -1.44, 2.13, -1.44, 1.0007415, 0, 0, 0, 1.0, 0, 0, 1, 1, 1, 0.5, 0, 1, 1, 0, 1, 0, 1, 0, 1, 0, 1
2100, '1', 8.1, -21.6, 31.95, -21.6, 1.0134068, 0, 0, 0, 1.0, 0, 0, 1, 1, 1, 8.1, 0, 1, 1, 0, 1, 0, 1, 0, 1, 0, 1
2103, '1', 0, 0, 136.28, -29.72, 1.0211624, 0, 0, 0, 1.0, 0, 0, 1, 0, 1, 267.73, 80.32, 1, 1, 0, 1, 0, 1, 0, 1, 0, 1
2104, '1', 0, 0, 136.28, -29.72, 1.0211624, 0, 0, 0, 1.0, 0, 0, 1, 0, 1, 267.73, 80.32, 1, 1, 0, 1, 0, 1, 0, 1, 0, 1
2105, '1', 0, 0, 136.28, -29.72, 1.0211624, 0, 0, 0, 1.0, 0, 0, 1, 0, 1, 267.73, 80.32, 1, 1, 0, 1, 0, 1, 0, 1, 0, 1
2115, '1', 83.098072, -20.5, 94.02, -20.5, 1.015714, 0, 0, 0, 1.0, 0, 0, 1, 1, 1, 184.72, 55.41, 1, 1, 0, 1, 0, 1, 0, 1, 0, 1
2116, '1', 83.098072, -20.5, 94.02, -20.5, 1.0195058, 0, 0, 0, 1.0, 0, 0, 1, 1, 1, 184.72, 55.41, 1, 1, 0, 1, 0, 1, 0, 1, 0, 1
2117, '1', 83.098072, -20.5, 94.02, -20.5, 1.0138388, 0, 0, 0, 1.0, 0, 0, 1, 1, 1, 184.72, 55.41, 1, 1, 0, 1, 0, 1, 0, 1, 0, 1
2118, '1', 101.28464, -20.5, 94.02, -20.5, 1.0128349, 0, 0, 0, 1.0, 0, 0, 1, 1, 1, 184.72, 55.41, 1, 1, 0, 1, 0, 1, 0, 1, 0, 1
2119, '1', 108.96004, -20.5, 94.02, -20.5, 1.0185952, 0, 0, 0, 1.0, 0, 0, 1, 1, 1, 184.72, 55.41, 1, 1, 0, 1, 0, 1, 0, 1, 0, 1
2120, '1', 108.96004, -20.5, 94.02, -20.5, 1.0133944, 0, 0, 0, 1.0, 0, 0, 1, 1, 1, 184.72, 55.41, 1, 1, 0, 1, 0, 1, 0, 1, 0, 1
2123, '1', 31.7, -26.16, 38.7, -26.16, 1.0234668, 0, 0, 0, 1.0, 0, 0, 1, 1, 1, 31.7, 0, 1, 1, 0, 1, 0, 1, 0, 1, 0, 1
2127, '1', 8.5, 28.230041, 61.47, -41.56, 1.04, 0, 0, 0, 1.0, 0, 0, 1, 1, 1, 8.5, 0, 1, 1, 0, 1, 0, 1, 0, 1, 0, 1
3004, '1', 19.9, -5.4, 7.99, -5.4, 1.009757, 0, 0, 0, 1.0, 0, 0, 1, 1, 1, 19.9, 0, 1, 1, 0, 1, 0, 1, 0, 1, 0, 1
3017, '1', 58.3, -24.41, 36.1, -24.41, 1.01, 0, 0, 0, 1.0, 0, 0, 1, 1, 1, 58.3, 0, 1, 1, 0, 1, 0, 1, 0, 1, 0, 1
3020, '1', 91.4, -21.6, 31.95, -21.6, 1.03, 0, 0, 0, 1.0, 0, 0, 1, 1, 1, 91.4, 0, 1, 1, 0, 1, 0, 1, 0, 1, 0, 1
3028, '1', 53.8, -28.8, 42.6, -28.8, 1.04, 0, 0, 0, 1.0, 0, 0, 1, 1, 1, 53.8, 0, 1, 1, 0, 1, 0, 1, 0, 1, 0, 1
3034, '1', 18.9, -18.79, 27.8, -18.79, 1.03, 0, 0, 0, 1.0, 0, 0, 1, 1, 1, 18.9, 0, 1, 1, 0, 1, 0, 1, 0, 1, 0, 1
3039, '1', 58.6, -30.1, 44.52, -30.1, 1.04, 0, 0, 0, 1.0, 0, 0, 1, 1, 1, 58.6, 0, 1, 1, 0, 1, 0, 1, 0, 1, 0, 1
3043, '1', 0, -0.14, 0.66, -0.14, 1.0373773, 0, 0, 0, 1.0, 0, 0, 1, 0, 1, 1.3, 0.39, 1, 1, 0, 1, 0, 1, 0, 1, 0, 1
3044, '1', 0, -0.545, 45.5, -9.92, 1.0373773, 0, 0, 0, 1.0, 0, 0, 1, 0, 1, 89.4, 26.82, 1, 1, 0, 1, 0, 1, 0, 1, 0, 1
3045, '1', 0, 0, 227.52, -49.62, 1.0373773, 0, 0, 0, 1.0, 0, 0, 1, 0, 1, 447, 134.1, 1, 1, 0, 1, 0, 1, 0, 1, 0, 1
3048, '1', 92.4, -34.7, 51.33, -34.7, 1.0467166, 0, 0, 0, 1.0, 0, 0, 1, 1, 1, 92.4, 0, 1, 1, 0, 1, 0, 1, 0, 1, 0, 1
3055, '1', 87.1, -35.3, 52.22, -35.3, 1.04, 0, 0, 0, 1.0, 0, 0, 1, 1, 1, 87.1, 0, 1, 1, 0, 1, 0, 1, 0, 1, 0, 1
3056, '1', 87.1, -35.3, 52.22, -35.3, 1.04, 0, 0, 0, 1.0, 0, 0, 1, 1, 1, 87.1, 0, 1, 1, 0, 1, 0, 1, 0, 1, 0, 1
3057, '1', 87.1, -35.3, 52.22, -35.3, 1.04, 0, 0, 0, 1.0, 0, 0, 1, 1, 1, 87.1, 0, 1, 1, 0, 1, 0, 1, 0, 1, 0, 1
3060, '1', 51.2, -23.85, 35.28, -23.85, 1.04, 0, 0, 0, 1.0, 0, 0, 1, 1, 1, 51.2, 0, 1, 1, 0, 1, 0, 1, 0, 1, 0, 1
3061, '1', 1, -23.85, 35.28, -23.85, 1.04, 0, 0, 0, 1.0, 0, 0, 1, 1, 1, 1, 0, 1, 1, 0, 1, 0, 1, 0, 1, 0, 1
3062, '1', 51.2, -23.85, 35.28, -23.85, 1.04, 0, 0, 0, 1.0, 0, 0, 1, 1, 1, 51.2, 0, 1, 1, 0, 1, 0, 1, 0, 1, 0, 1
3063, '1', 51.2, -23.85, 35.28, -23.85, 1.04, 0, 0, 0, 1.0, 0, 0, 1, 1, 1, 51.2, 0, 1, 1, 0, 1, 0, 1, 0, 1, 0, 1
3065, '1', 33.9, -11.59, 17.15, -11.59, 1, 0, 0, 0, 1.0, 0, 0, 1, 1, 1, 33.9, 0, 1, 1, 0, 1, 0, 1, 0, 1, 0, 1
3068, '1', 64.5, -21.6, 31.95, -21.6, 1.04, 0, 0, 0, 1.0, 0, 0, 1, 1, 1, 64.5, 0, 1, 1, 0, 1, 0, 1, 0, 1, 0, 1
3071, '1', 11, -24.51, 36.25, -24.51, 1.0035139, 0, 0, 0, 1.0, 0, 0, 1, 1, 1, 11, 0, 1, 1, 0, 1, 0, 1, 0, 1, 0, 1
3074, '1', 14.9, -14.37, 21.26, -14.37, 1, 0, 0, 0, 1.0, 0, 0, 1, 1, 1, 14.9, 0, 1, 1, 0, 1, 0, 1, 0, 1, 0, 1
3081, '1', 139.9, -35.86, 53.04, -35.86, 1.04, 0, 0, 0, 1.0, 0, 0, 1, 1, 1, 139.9, 0, 1, 1, 0, 1, 0, 1, 0, 1, 0, 1
3084, '1', 157.5, -33.48, 49.52, -33.48, 1, 0, 0, 0, 1.0, 0, 0, 1, 1, 1, 157.5, 0, 1, 1, 0, 1, 0, 1, 0, 1, 0, 1
3086, '1', 13.6, -10.8, 15.97, -10.8, 1, 0, 0, 0, 1.0, 0, 0, 1, 1, 1, 13.6, 0, 1, 1, 0, 1, 0, 1, 0, 1, 0, 1
3087, '1', 12.667, -5.755, 15.97, -10.8, 1.0139806, 0, 0, 0, 1.0, 0, 0, 1, 0, 1, 13.6, 0, 1, 1, 0, 1, 0, 1, 0, 1, 0, 1
3092, '1', 60.5, -28.8, 42.6, -28.8, 1.04, 0, 0, 0, 1.0, 0, 0, 1, 1, 1, 60.5, 0, 1, 1, 0, 1, 0, 1, 0, 1, 0, 1
3095, '1', 86.7, -17.37, 25.69, -17.37, 1.04, 0, 0, 0, 1.0, 0, 0, 1, 1, 1, 86.7, 0, 1, 1, 0, 1, 0, 1, 0, 1, 0, 1
3098, '1', 66.8, -23.04, 34.08, -23.04, 1.04, 0, 0, 0, 1.0, 0, 0, 1, 1, 1, 66.8, 0, 1, 1, 0, 1, 0, 1, 0, 1, 0, 1
3105, '1', 0, -0.74, 17.071, -0.74, 1.01564, 0, 0, 0, 1.0, 0, 0, 1, 1, 1, 0, 0, 1, 1, 0, 1, 0, 1, 0, 1, 0, 1
3106, '1', 0, -2.69, 62.477, -2.69, 1.0114099, 0, 0, 0, 1.0, 0, 0, 1, 1, 1, 0, 0, 1, 1, 0, 1, 0, 1, 0, 1, 0, 1
3110, '1', 28, -12.1, 17.89, -12.1, 1.04, 0, 0, 0, 1.0, 0, 0, 1, 1, 1, 28, 0, 1, 1, 0, 1, 0, 1, 0, 1, 0, 1
3112, '1', 65.6, -10.77, 15.93, -10.77, 1, 0, 0, 0, 1.0, 0, 0, 1, 1, 1, 65.6, 0, 1, 1, 0, 1, 0, 1, 0, 1, 0, 1
3113, '1', 15.6, -10.77, 15.93, -10.77, 1, 0, 0, 0, 1.0, 0, 0, 1, 1, 1, 15.6, 0, 1, 1, 0, 1, 0, 1, 0, 1, 0, 1
3117, '1', 38.5, -9.07, 13.42, -9.07, 1, 0, 0, 0, 1.0, 0, 0, 1, 1, 1, 38.5, 0, 1, 1, 0, 1, 0, 1, 0, 1, 0, 1
3118, '1', 46.8, -17.28, 25.56, -17.28, 1, 0, 0, 0, 1.0, 0, 0, 1, 1, 1, 46.8, 0, 1, 1, 0, 1, 0, 1, 0, 1, 0, 1
3120, '1', 15.742, 0, 0, 0, 1.0120426, 0, 0, 0, 1.0, 0, 0, 1, 1, 1, 15.742, 8.034, 1, 1, 0, 1, 0, 1, 0, 1, 0, 1
3122, '1', 95.8, -28.37, 41.96, -28.37, 1, 0, 0, 0, 1.0, 0, 0, 1, 1, 1, 95.8, 0, 1, 1, 0, 1, 0, 1, 0, 1, 0, 1
3127, '1', 44.4, -19.44, 28.76, -19.44, 1.0127787, 0, 0, 0, 1.0, 0, 0, 1, 1, 1, 44.4, 0, 1, 1, 0, 1, 0, 1, 0, 1, 0, 1
3129, '1', 30.5, -18.22, 26.94, -18.22, 1.0102968, 0, 0, 0, 1.0, 0, 0, 1, 1, 1, 30.5, 0, 1, 1, 0, 1, 0, 1, 0, 1, 0, 1
3131, '1', 67.3, -16.42, 24.28, -16.42, 1.02, 0, 0, 0, 1.0, 0, 0, 1, 1, 1, 67.3, 0, 1, 1, 0, 1, 0, 1, 0, 1, 0, 1
3133, '1', 0, 3.181, 26.11, -5.69, 1.0273578, 0, 0, 0, 1.0, 0, 0, 1, 0, 1, 51.3, 15.39, 1, 1, 0, 1, 0, 1, 0, 1, 0, 1
3133, '2', 0, 3.181, 26.11, -5.69, 1.0273578, 0, 0, 0, 1.0, 0, 0, 1, 0, 1, 51.3, 15.39, 1, 1, 0, 1, 0, 1, 0, 1, 0, 1
3133, '3', 0, 3.181, 26.11, -5.69, 1.0273578, 0, 0, 0, 1.0, 0, 0, 1, 0, 1, 51.3, 15.39, 1, 1, 0, 1, 0, 1, 0, 1, 0, 1
3137, '1', 65.8, -14.57, 21.56, -14.57, 1.028432, 0, 0, 0, 1.0, 0, 0, 1, 1, 1, 65.8, 0, 1, 1, 0, 1, 0, 1, 0, 1, 0, 1
3141, '1', 38.6, -13.18, 19.49, -13.18, 1.0152308, 0, 0, 0, 1.0, 0, 0, 1, 1, 1, 38.6, 0, 1, 1, 0, 1, 0, 1, 0, 1, 0, 1
4010, '1', 37.9, -29.03, 42.94, -29.03, 1.03, 0, 0, 0, 1.0, 0, 0, 1, 1, 1, 37.9, 0, 1, 1, 0, 1, 0, 1, 0, 1, 0, 1
4026, '1', 184.45311, -50.02, 191.06, -50.02, 1.03, 0, 0, 0, 1.0, 0, 0, 1, 1, 1, 410, 123, 1, 1, 0, 1, 0, 1, 0, 1, 0, 1
4030, '1', 192.87281, -75.93, 290.04, -75.93, 1.01, 0, 0, 0, 1.0, 0, 0, 1, 1, 1, 622.4, 186.72, 1, 1, 0, 1, 0, 1, 0, 1, 0, 1
4045, '1', 0, -1.54, 35.862, -1.54, 1.02, 0, 0, 0, 1.0, 0, 0, 1, 1, 1, 0, 0, 1, 1, 0, 1, 0, 1, 0, 1, 0, 1
4046, '1', 0, -0.47, 10.936, -0.47, 1.02, 0, 0, 0, 1.0, 0, 0, 1, 1, 1, 0, 0, 1, 1, 0, 1, 0, 1, 0, 1, 0, 1
4047, '1', 0, -3.23, 75.102, -3.23, 1.02, 0, 0, 0, 1.0, 0, 0, 1, 1, 1, 0, 0, 1, 1, 0, 1, 0, 1, 0, 1, 0, 1
4050, '1', 8.6, -28.8, 42.6, -28.8, 1, 0, 0, 0, 1.0, 0, 0, 1, 1, 1, 8.6, 0, 1, 1, 0, 1, 0, 1, 0, 1, 0, 1
4052, '1', 44.2, -4.91, 22.5, -4.91, 1.0354769, 0, 0, 0, 1.0, 0, 0, 1, 1, 1, 44.2, 13.26, 1, 1, 0, 1, 0, 1, 0, 1, 0, 1
4058, '1', 144, -15.98, 73.3, -15.98, 1.03, 0, 0, 0, 1.0, 0, 0, 1, 1, 1, 144, 43.2, 1, 1, 0, 1, 0, 1, 0, 1, 0, 1
4059, '1', 144, -15.98, 73.3, -15.98, 1.03, 0, 0, 0, 1.0, 0, 0, 1, 1, 1, 144, 43.2, 1, 1, 0, 1, 0, 1, 0, 1, 0, 1
4060, '1', 144, -15.98, 73.3, -15.98, 1.03, 0, 0, 0, 1.0, 0, 0, 1, 1, 1, 144, 43.2, 1, 1, 0, 1, 0, 1, 0, 1, 0, 1
4061, '1', 149.90759, -19.13, 87.72, -19.13, 1.03, 0, 0, 0, 1.0, 0, 0, 1, 1, 1, 172.33, 51.7, 1, 1, 0, 1, 0, 1, 0, 1, 0, 1
4062, '1', 149.90759, -19.13, 87.72, -19.13, 1.03, 0, 0, 0, 1.0, 0, 0, 1, 1, 1, 172.33, 51.7, 1, 1, 0, 1, 0, 1, 0, 1, 0, 1
4063, '1', 149.90759, -19.13, 87.72, -19.13, 1.03, 0, 0, 0, 1.0, 0, 0, 1, 1, 1, 172.33, 51.7, 1, 1, 0, 1, 0, 1, 0, 1, 0, 1
4065, '1', 47, -5.22, 23.92, -5.22, 1.02, 0, 0, 0, 1.0, 0, 0, 1, 1, 1, 47, 14.1, 1, 1, 0, 1, 0, 1, 0, 1, 0, 1
4075, '1', 0, 25.07, 89.75, -19.57, 1.0113403, 0, 0, 0, 1.0, 0, 0, 1, 0, 1, 176.33, 52.9, 1, 1, 0, 1, 0, 1, 0, 1, 0, 1
4076, '1', 54.643132, -19.57, 89.75, -19.57, 1.03, 0, 0, 0, 1.0, 0, 0, 1, 1, 1, 176.33, 52.9, 1, 1, 0, 1, 0, 1, 0, 1, 0, 1
4077, '1', 54.643132, -19.57, 89.75, -19.57, 1.03, 0, 0, 0, 1.0, 0, 0, 1, 1, 1, 176.33, 52.9, 1, 1, 0, 1, 0, 1, 0, 1, 0, 1
4082, '1', 75.42616, -27.02, 123.89, -27.02, 1.04, 0, 0, 0, 1.0, 0, 0, 1, 1, 1, 243.4, 73.02, 1, 1, 0, 1, 0, 1, 0, 1, 0, 1
4083, '1', 75.42616, -27.02, 123.89, -27.02, 1.04, 0, 0, 0, 1.0, 0, 0, 1, 1, 1, 243.4, 73.02, 1, 1, 0, 1, 0, 1, 0, 1, 0, 1
4084, '1', 75.42616, -27.02, 123.89, -27.02, 1.04, 0, 0, 0, 1.0, 0, 0, 1, 1, 1, 243.4, 73.02, 1, 1, 0, 1, 0, 1, 0, 1, 0, 1
4085, '1', 109.07974, -39.07, 179.17, -39.07, 1.04, 0, 0, 0, 1.0, 0, 0, 1, 1, 1, 352, 105.6, 1, 1, 0, 1, 0, 1, 0, 1, 0, 1
4090, '1', 1.383, 0.324, 0.65, -0.17, 1.0064119, 0, 0, 0, 1.0, 0, 0, 1, 0, 1, 1.4, 0.42, 1, 1, 0, 1, 0, 1, 0, 1, 0, 1
4091, '1', 23.5, -2.87, 10.95, -2.87, 1.01, 0, 0, 0, 1.0, 0, 0, 1, 1, 1, 23.5, 7.05, 1, 1, 0, 1, 0, 1, 0, 1, 0, 1
4092, '1', 7.505, 1.486, 3.54, -0.93, 1.0064119, 0, 0, 0, 1.0, 0, 0, 1, 0, 1, 7.6, 2.28, 1, 1, 0, 1, 0, 1, 0, 1, 0, 1
4093, '1', 28, -3.42, 13.05, -3.42, 1.01, 0, 0, 0, 1.0, 0, 0, 1, 1, 1, 28, 8.4, 1, 1, 0, 1, 0, 1, 0, 1, 0, 1
4094, '1', 28, -3.42, 13.05, -3.42, 1.01, 0, 0, 0, 1.0, 0, 0, 1, 1, 1, 28, 8.4, 1, 1, 0, 1, 0, 1, 0, 1, 0, 1
4095, '1', 28, -3.42, 13.05, -3.42, 1.01, 0, 0, 0, 1.0, 0, 0, 1, 1, 1, 28, 8.4, 1, 1, 0, 1, 0, 1, 0, 1, 0, 1
4096, '1', 27.652, 0.638, 13.05, -3.42, 1.0064119, 0, 0, 0, 1.0, 0, 0, 1, 0, 1, 28, 8.4, 1, 1, 0, 1, 0, 1, 0, 1, 0, 1
4097, '1', 28, -3.42, 13.05, -3.42, 1.01, 0, 0, 0, 1.0, 0, 0, 1, 1, 1, 28, 8.4, 1, 1, 0, 1, 0, 1, 0, 1, 0, 1
4098, '1', 27.652, 0.486, 13.05, -3.42, 1.0064119, 0, 0, 0, 1.0, 0, 0, 1, 0, 1, 28, 8.4, 1, 1, 0, 1, 0, 1, 0, 1, 0, 1
4105, '1', 33, -25.92, 38.34, -25.92, 1.01, 0, 0, 0, 1.0, 0, 0, 1, 1, 1, 33, 0, 1, 1, 0, 1, 0, 1, 0, 1, 0, 1
4115, '1', 40.842925, -14.63, 67.09, -14.63, 1.04, 0, 0, 0, 1.0, 0, 0, 1, 1, 1, 131.8, 39.54, 1, 1, 0, 1, 0, 1, 0, 1, 0, 1
4116, '1', 40.842925, -14.63, 67.09, -14.63, 1.04, 0, 0, 0, 1.0, 0, 0, 1, 1, 1, 131.8, 39.54, 1, 1, 0, 1, 0, 1, 0, 1, 0, 1
4133, '1', 0, -3.73, 17.1, -3.73, 1.015, 0, 0, 0, 1.0, 0, 0, 1, 0, 1, 33.6, 10.08, 1, 1, 0, 1, 0, 1, 0, 1, 0, 1
4134, '1', 10.412157, -3.73, 17.1, -3.73, 1.009644, 0, 0, 0, 1.0, 0, 0, 1, 1, 1, 33.6, 10.08, 1, 1, 0, 1, 0, 1, 0, 1, 0, 1
4135, '1', 10.412157, -3.73, 17.1, -3.73, 1.0100401, 0, 0, 0, 1.0, 0, 0, 1, 1, 1, 33.6, 10.08, 1, 1, 0, 1, 0, 1, 0, 1, 0, 1
4136, '1', 10.412157, -3.73, 17.1, -3.73, 1.0083361, 0, 0, 0, 1.0, 0, 0, 1, 1, 1, 33.6, 10.08, 1, 1, 0, 1, 0, 1, 0, 1, 0, 1
4137, '1', 0, -7.46, 34.2, -7.46, 1.015, 0, 0, 0, 1.0, 0, 0, 1, 0, 1, 67.2, 20.16, 1, 1, 0, 1, 0, 1, 0, 1, 0, 1
4138, '1', 0, -7.33, 33.59, -7.33, 1.015, 0, 0, 0, 1.0, 0, 0, 1, 0, 1, 66, 19.8, 1, 1, 0, 1, 0, 1, 0, 1, 0, 1
4142, '1', 17.3, -27.07, 40.04, -27.07, 1.0349982, 0, 0, 0, 1.0, 0, 0, 1, 1, 1, 17.3, 0, 1, 1, 0, 1, 0, 1, 0, 1, 0, 1
4153, '1', 25, -40.78, 60.32, -40.78, 1.0316673, 0, 0, 0, 1.0, 0, 0, 1, 1, 1, 25, 0, 1, 1, 0, 1, 0, 1, 0, 1, 0, 1
4160, '1', 88.973079, -21.95, 100.66, -21.95, 1.03, 0, 0, 0, 1.0, 0, 0, 1, 1, 1, 197.77, 59.33, 1, 1, 0, 1, 0, 1, 0, 1, 0, 1
4161, '1', 88.973079, -21.95, 100.66, -21.95, 1.03, 0, 0, 0, 1.0, 0, 0, 1, 1, 1, 197.77, 59.33, 1, 1, 0, 1, 0, 1, 0, 1, 0, 1
4162, '1', 88.973079, -21.95, 100.66, -21.95, 1.03, 0, 0, 0, 1.0, 0, 0, 1, 1, 1, 197.77, 59.33, 1, 1, 0, 1, 0, 1, 0, 1, 0, 1
4163, '1', 8.888, 4.58, 4.58, -1, 1.0171147, 0, 0, 0, 1.0, 0, 0, 1, 0, 1, 9, 2.7, 1, 1, 0, 1, 0, 1, 0, 1, 0, 1
4166, '1', 17.7, -28.94, 42.81, -28.94, 1.0054131, 0, 0, 0, 1.0, 0, 0, 1, 1, 1, 17.7, 0, 1, 1, 0, 1, 0, 1, 0, 1, 0, 1
4177, '1', 131.6, -21.6, 31.95, -21.6, 1.04, 0, 0, 0, 1.0, 0, 0, 1, 1, 1, 131.6, 0, 1, 1, 0, 1, 0, 1, 0, 1, 0, 1
4181, '1', 20.3, -28.81, 42.62, -28.81, 1.0242582, 0, 0, 0, 1.0, 0, 0, 1, 1, 1, 20.3, 0, 1, 1, 0, 1, 0, 1, 0, 1, 0, 1
4183, '1', 17.2, -29.23, 43.24, -29.23, 1.0166647, 0, 0, 0, 1.0, 0, 0, 1, 1, 1, 17.2, 0, 1, 1, 0, 1, 0, 1, 0, 1, 0, 1
4192, '1', 75, -8.33, 38.17, -8.33, 1.02, 0, 0, 0, 1.0, 0, 0, 1, 1, 1, 75, 22.5, 1, 1, 0, 1, 0, 1, 0, 1, 0, 1
4192, '10', 134.13068, -20.4, 93.54, -20.4, 1.02, 0, 0, 0, 1.0, 0, 0, 1, 1, 1, 183.77, 55.13, 1, 1, 0, 1, 0, 1, 0, 1, 0, 1
4192, '2', 23.702, 12.22, 12.22, -2.66, 1.02, 0, 0, 0, 1.0, 0, 0, 1, 0, 1, 24, 7.2, 1, 1, 0, 1, 0, 1, 0, 1, 0, 1
4192, '3', 61, -6.77, 31.05, -6.77, 1.02, 0, 0, 0, 1.0, 0, 0, 1, 1, 1, 61, 18.3, 1, 1, 0, 1, 0, 1, 0, 1, 0, 1
4192, '4', 10.4, -1.15, 5.29, -1.15, 1.02, 0, 0, 0, 1.0, 0, 0, 1, 1, 1, 10.4, 3.12, 1, 1, 0, 1, 0, 1, 0, 1, 0, 1
4192, '5', 82.739461, -29.64, 135.9, -29.64, 1.02, 0, 0, 0, 1.0, 0, 0, 1, 1, 1, 267, 80.1, 1, 1, 0, 1, 0, 1, 0, 1, 0, 1
4192, '6', 82.739461, -29.64, 135.9, -29.64, 1.02, 0, 0, 0, 1.0, 0, 0, 1, 1, 1, 267, 80.1, 1, 1, 0, 1, 0, 1, 0, 1, 0, 1
4192, '7', 82.739461, -29.64, 135.9, -29.64, 1.02, 0, 0, 0, 1.0, 0, 0, 1, 1, 1, 267, 80.1, 1, 1, 0, 1, 0, 1, 0, 1, 0, 1
4192, '8', 134.13068, -20.4, 93.54, -20.4, 1.02, 0, 0, 0, 1.0, 0, 0, 1, 1, 1, 183.77, 55.13, 1, 1, 0, 1, 0, 1, 0, 1, 0, 1
4192, '9', 134.13068, -20.4, 93.54, -20.4, 1.02, 0, 0, 0, 1.0, 0, 0, 1, 1, 1, 183.77, 55.13, 1, 1, 0, 1, 0, 1, 0, 1, 0, 1
4194, '1', 28.7, -29.03, 42.94, -29.03, 1.0041065, 0, 0, 0, 1.0, 0, 0, 1, 1, 1, 28.7, 0, 1, 1, 0, 1, 0, 1, 0, 1, 0, 1
4195, '1', 5, -13.25, 19.6, -13.25, 1.0232999, 0, 0, 0, 1.0, 0, 0, 1, 1, 1, 5, 0, 1, 1, 0, 1, 0, 1, 0, 1, 0, 1
5020, '1', 5.2, -17.28, 25.56, -17.28, 1.0274496, 0, 0, 0, 1.0, 0, 0, 1, 1, 1, 5.2, 0, 1, 1, 0, 1, 0, 1, 0, 1, 0, 1
5023, '1', 4.74, 2.44, 2.44, -0.53, 1.0193098, 0, 0, 0, 1.0, 0, 0, 1, 0, 1, 4.8, 1.44, 1, 1, 0, 1, 0, 1, 0, 1, 0, 1
5035, '1', 4.148, 2.14, 2.14, -0.47, 1.0182973, 0, 0, 0, 1.0, 0, 0, 1, 0, 1, 4.2, 1.26, 1, 1, 0, 1, 0, 1, 0, 1, 0, 1
5036, '1', 6.32, 3.26, 3.26, -0.71, 1.0182973, 0, 0, 0, 1.0, 0, 0, 1, 0, 1, 6.4, 1.92, 1, 1, 0, 1, 0, 1, 0, 1, 0, 1
5037, '1', 308.47, -34.24, 157.01, -34.24, 1.02, 0, 0, 0, 1.0, 0, 0, 1, 1, 1, 308.47, 92.54, 1, 1, 0, 1, 0, 1, 0, 1, 0, 1
5038, '1', 308.47, -34.24, 157.01, -34.24, 1.02, 0, 0, 0, 1.0, 0, 0, 1, 1, 1, 308.47, 92.54, 1, 1, 0, 1, 0, 1, 0, 1, 0, 1
5039, '1', 308.47, -34.24, 157.01, -34.24, 1.02, 0, 0, 0, 1.0, 0, 0, 1, 1, 1, 308.47, 92.54, 1, 1, 0, 1, 0, 1, 0, 1, 0, 1
5040, '1', 308.47, -34.24, 157.01, -34.24, 1.02, 0, 0, 0, 1.0, 0, 0, 1, 1, 1, 308.47, 92.54, 1, 1, 0, 1, 0, 1, 0, 1, 0, 1
5041, '1', 308.47, -34.24, 157.01, -34.24, 1.02, 0, 0, 0, 1.0, 0, 0, 1, 1, 1, 308.47, 92.54, 1, 1, 0, 1, 0, 1, 0, 1, 0, 1
5042, '1', 308.47, -34.24, 157.01, -34.24, 1.02, 0, 0, 0, 1.0, 0, 0, 1, 1, 1, 308.47, 92.54, 1, 1, 0, 1, 0, 1, 0, 1, 0, 1
5051, '1', 84.7, -9.4, 43.11, -9.4, 1.0200167, 0, 0, 0, 1.0, 0, 0, 1, 1, 1, 84.7, 25.41, 1, 1, 0, 1, 0, 1, 0, 1, 0, 1
5057, '1', 313.403, -35.23, 161.53, -35.23, 1.0292677, 0, 0, 0, 1.0, 0, 0, 1, 0, 1, 317.35, 95.2, 1, 1, 0, 1, 0, 1, 0, 1, 0, 1
5058, '1', 142.7672, -35.23, 161.53, -35.23, 1.0227101, 0, 0, 0, 1.0, 0, 0, 1, 1, 1, 317.35, 95.2, 1, 1, 0, 1, 0, 1, 0, 1, 0, 1
5065, '1', 10.6, -1.18, 5.4, -1.18, 1.0217179, 0, 0, 0, 1.0, 0, 0, 1, 1, 1, 10.6, 3.18, 1, 1, 0, 1, 0, 1, 0, 1, 0, 1
5066, '1', 1.778, 0.92, 0.92, -0.2, 1.0207665, 0, 0, 0, 1.0, 0, 0, 1, 0, 1, 1.8, 0.54, 1, 1, 0, 1, 0, 1, 0, 1, 0, 1
5067, '1', 135.81257, -48.65, 223.08, -48.65, 1.03, 0, 0, 0, 1.0, 0, 0, 1, 1, 1, 438.27, 131.48, 1, 1, 0, 1, 0, 1, 0, 1, 0, 1
5068, '1', 135.81257, -48.65, 223.08, -48.65, 1.03, 0, 0, 0, 1.0, 0, 0, 1, 1, 1, 438.27, 131.48, 1, 1, 0, 1, 0, 1, 0, 1, 0, 1
5069, '1', 135.81257, -48.65, 223.08, -48.65, 1.03, 0, 0, 0, 1.0, 0, 0, 1, 1, 1, 438.27, 131.48, 1, 1, 0, 1, 0, 1, 0, 1, 0, 1
5089, '1', 123.38, -2.05, 47.569, -2.05, 1.014636, 0, 0, 0, 1.0, 0, 0, 1, 0, 1, 123.9, 0, 1, 1, 0, 1, 0, 1, 0, 1, 0, 1
...
0 / END OF GENERATOR DATA, BEGIN BRANCH DATA
1001, 1064, '1', 0.00524, 0.0358, 0.00609, 221, 221, 221, 0, 0, 0, 0, 1, 1, 0, 1, 1, 0, 1, 0, 1, 0, 1
1001, 1064, '2', 0.00524, 0.0358, 0.00609, 221, 221, 221, 0, 0, 0, 0, 1, 1, 0, 1, 1, 0, 1, 0, 1, 0, 1
1001, 1071, '1', 0.00435, 0.02808, 0.00536, 221, 221, 221, 0, 0, 0, 0, 1, 1, 0, 1, 1, 0, 1, 0, 1, 0, 1
1001, 1071, '2', 0.00435, 0.02808, 0.00536, 221, 221, 221, 0, 0, 0, 0, 1, 1, 0, 1, 1, 0, 1, 0, 1, 0, 1
1002, 1007, '1', 0.07776, 0.46693, 0.06336, 98, 98, 98, 0, 0, 0, 0, 1, 1, 0, 1, 1, 0, 1, 0, 1, 0, 1
1010, 1002, '1', 0.05552, 0.1357, 0.01777, 98, 98, 98, 0, 0, 0, 0, 1, 1, 0, 1, 1, 0, 1, 0, 1, 0, 1
1022, 1003, '1', 0.00485, 0.02012, 0.00341, 221, 221, 221, 0, 0, 0, 0, 1, 1, 0, 1, 1, 0, 1, 0, 1, 0, 1
1055, 1003, '1', 0.01574, 0.03782, 0.00513, 98, 98, 98, 0, 0, 0, 0, 1, 1, 0, 1, 1, 0, 1, 0, 1, 0, 1
1004, 3133, '1', 0.0042, 0.03, 0.055, 523, 523, 523, 0, 0, 0, 0, 1, 1, 0, 1, 1, 0, 1, 0, 1, 0, 1
1025, 1005, '1', 0.01842, 0.0821, 0.01204, 149, 149, 149, 0, 0, 0, 0, 1, 1, 0, 1, 1, 0, 1, 0, 1, 0, 1
1005, 1061, '1', 0.00599, 0.02484, 0.00422, 221, 221, 221, 0, 0, 0, 0, 1, 1, 0, 1, 1, 0, 1, 0, 1, 0, 1
1067, 1005, '1', 0.01711, 0.04181, 0.00548, 98, 98, 98, 0, 0, 0, 0, 1, 1, 0, 1, 1, 0, 1, 0, 1, 0, 1
1007, 1015, '1', 0.06224, 0.37375, 0.05072, 98, 98, 98, 0, 0, 0, 0, 1, 1, 0, 1, 1, 0, 1, 0, 1, 0, 1
1031, 1007, '1', 0.04803, 0.27434, 0.04123, 98, 98, 98, 0, 0, 0, 0, 1, 1, 0, 1, 1, 0, 1, 0, 1, 0, 1
1008, 1032, '1', 0.04501, 0.11002, 0.01441, 98, 98, 98, 0, 0, 0, 0, 1, 1, 0, 1, 1, 0, 1, 0, 1, 0, 1
1008, 1069, '1', 0.0083, 0.03628, 0.00553, 149, 149, 149, 0, 0, 0, 0, 1, 1, 0, 1, 1, 0, 1, 0, 1, 0, 1
1010, 1015, '1', 0.04703, 0.28243, 0.03833, 98, 98, 98, 0, 0, 0, 0, 1, 1, 0, 1, 1, 0, 1, 0, 1, 0, 1
1010, 1030, '1', 0.0616, 0.3699, 0.0502, 98, 98, 98, 0, 0, 0, 0, 1, 1, 0, 1, 1, 0, 1, 0, 1, 0, 1
1012, 1087, '1', 0.04934, 0.20469, 0.03473, 149, 149, 149, 0, 0, 0, 0, 1, 1, 0, 1, 1, 0, 1, 0, 1, 0, 1
3051, 1012, '1', 0.0571, 0.24977, 0.03804, 149, 149, 149, 0, 0, 0, 0, 1, 1, 0, 1, 1, 0, 1, 0, 1, 0, 1
1013, 1031, '1', 0.04509, 0.27078, 0.03675, 98, 98, 98, 0, 0, 0, 0, 1, 1, 0, 1, 1, 0, 1, 0, 1, 0, 1
1047, 1013, '1', 0.00947, 0.06117, 0.01167, 221, 221, 221, 0, 0, 0, 0, 1, 1, 0, 1, 1, 0, 1, 0, 1, 0, 1
1086, 1013, '1', 0.079, 0.19311, 0.02529, 98, 98, 98, 0, 0, 0, 0, 1, 1, 0, 1, 1, 0, 1, 0, 1, 0, 1
1014, 1047, '1', 0.03566, 0.14794, 0.0251, 149, 149, 149, 0, 0, 0, 0, 1, 1, 0, 1, 1, 0, 1, 0, 1, 0, 1
1014, 1083, '1', 0.04105, 0.18293, 0.02682, 149, 149, 149, 0, 0, 0, 0, 1, 1, 0, 1, 1, 0, 1, 0, 1, 0, 1
1016, 1034, '1', 0.01828, 0.10976, 0.01489, 98, 98, 98, 0, 0, 0, 0, 1, 1, 0, 1, 1, 0, 1, 0, 1, 0, 1
1068, 1016, '1', 0.02773, 0.15837, 0.0238, 98, 98, 98, 0, 0, 0, 0, 1, 1, 0, 1, 1, 0, 1, 0, 1, 0, 1
1018, 1017, '1', 0.03227, 0.07887, 0.01033, 98, 98, 98, 0, 0, 0, 0, 1, 1, 0, 1, 1, 0, 1, 0, 1, 0, 1
1017, 1029, '1', 0.03244, 0.14188, 0.02161, 149, 149, 149, 0, 0, 0, 0, 1, 1, 0, 1, 1, 0, 1, 0, 1, 0, 1
1037, 1017, '1', 0.00752, 0.03352, 0.00491, 221, 221, 221, 0, 0, 0, 0, 1, 1, 0, 1, 1, 0, 1, 0, 1, 0, 1
1047, 1017, '1', 0.036, 0.156, 0.024, 150, 150, 150, 0, 0, 0, 0, 1, 1, 0, 1, 1, 0, 1, 0, 1, 0, 1
1024, 1018, '1', 0.01094, 0.06572, 0.00892, 98, 98, 98, 0, 0, 0, 0, 1, 1, 0, 1, 1, 0, 1, 0, 1, 0, 1
1019, 1040, '1', 0.04978, 0.20651, 0.03504, 149, 149, 149, 0, 0, 0, 0, 1, 1, 0, 1, 1, 0, 1, 0, 1, 0, 1
1019, 1045, '1', 0.01522, 0.0372, 0.00487, 221, 221, 221, 0, 0, 0, 0, 1, 1, 0, 1, 1, 0, 1, 0, 1, 0, 1
1019, 1071, '1', 0.0044, 0.028, 0.0054, 225, 225, 225, 0, 0, 0, 0, 1, 1, 0, 1, 1, 0, 1, 0, 1, 0, 1
1071, 1019, '2', 0.0044, 0.028, 0.0054, 225, 225, 225, 0, 0, 0, 0, 1, 1, 0, 1, 1, 0, 1, 0, 1, 0, 1
1019, 1084, '1', 0.03, 0.16, 0.025, 220, 220, 220, 0, 0, 0, 0, 1, 1, 0, 1, 1, 0, 1, 0, 1, 0, 1
1025, 1020, '1', 0.00828, 0.03434, 0.00583, 149, 149, 149, 0, 0, 0, 0, 1, 1, 0, 1, 1, 0, 1, 0, 1, 0, 1
1084, 1020, '1', 0.01056, 0.06337, 0.0086, 221, 221, 221, 0, 0, 0, 0, 1, 1, 0, 1, 1, 0, 1, 0, 1, 0, 1
1020, 3059, '1', 0.0189, 0.06, 0.006, 300, 300, 300, 0, 0, 0, 0, 1, 1, 0, 1, 1, 0, 1, 0, 1, 0, 1
1020, 3130, '1', 0.00996, 0.06938, 0.01134, 221, 221, 221, 0, 0, 0, 0, 1, 1, 0, 1, 1, 0, 1, 0, 1, 0, 1
1022, 1028, '1', 0.01433, 0.09253, 0.01765, 221, 221, 221, 0, 0, 0, 0, 1, 1, 0, 1, 1, 0, 1, 0, 1, 0, 1
1022, 1028, '2', 0.01433, 0.09253, 0.01765, 221, 221, 221, 0, 0, 0, 0, 1, 1, 0, 1, 1, 0, 1, 0, 1, 0, 1
1024, 1090, '1', 0.01414, 0.06303, 0.00924, 149, 149, 149, 0, 0, 0, 0, 1, 1, 0, 1, 1, 0, 1, 0, 1, 0, 1
1027, 1045, '1', 0.02505, 0.10957, 0.01669, 221, 221, 221, 0, 0, 0, 0, 1, 1, 0, 1, 1, 0, 1, 0, 1, 0, 1
1056, 1027, '1', 0.03121, 0.0763, 0.00999, 250, 250, 250, 0, 0, 0, 0, 1, 1, 0, 1, 1, 0, 1, 0, 1, 0, 1
1028, 3109, '1', 0.00428, 0.01875, 0.00286, 250, 250, 250, 0, 0, 0, 0, 1, 1, 0, 1, 1, 0, 1, 0, 1, 0, 1
1029, 1056, '1', 0.02054, 0.11733, 0.01763, 221, 221, 221, 0, 0, 0, 0, 1, 1, 0, 1, 1, 0, 1, 0, 1, 0, 1
1030, 1038, '1', 0.07404, 0.42285, 0.06354, 98, 98, 98, 0, 0, 0, 0, 1, 1, 0, 1, 1, 0, 1, 0, 1, 0, 1
1083, 1030, '1', 0.06537, 0.37334, 0.0561, 98, 98, 98, 0, 0, 0, 0, 1, 1, 0, 1, 1, 0, 1, 0, 1, 0, 1
1032, 1036, '1', 0.01956, 0.11746, 0.01594, 98, 98, 98, 0, 0, 0, 0, 1, 1, 0, 1, 1, 0, 1, 0, 1, 0, 1
1038, 1032, '1', 0.045, 0.11, 0.015, 155, 155, 155, 0, 0, 0, 0, 1, 1, 0, 1, 1, 0, 1, 0, 1, 0, 1
1033, 1081, '1', 0.003, 0.031, 0.059, 548, 548, 548, 0, 0, 0, 0, 1, 1, 0, 1, 1, 0, 1, 0, 1, 0, 1
1033, 3050, '1', 0.0139, 0.136, 0.262, 647, 647, 647, 0, 0, 0, 0, 1, 1, 0, 1, 1, 0, 1, 0, 1, 0, 1
1067, 1034, '1', 0.00795, 0.04771, 0.00647, 98, 98, 98, 0, 0, 0, 0, 1, 1, 0, 1, 1, 0, 1, 0, 1, 0, 1
1088, 1036, '1', 0.02065, 0.11793, 0.01772, 98, 98, 98, 0, 0, 0, 0, 1, 1, 0, 1, 1, 0, 1, 0, 1, 0, 1
1037, 1071, '1', 0.00669, 0.04319, 0.00824, 300, 300, 300, 0, 0, 0, 0, 1, 1, 0, 1, 1, 0, 1, 0, 1, 0, 1
1082, 1038, '1', 0.01115, 0.04969, 0.00729, 149, 149, 149, 0, 0, 0, 0, 1, 1, 0, 1, 1, 0, 1, 0, 1, 0, 1
1083, 1038, '1', 0.01, 0.05, 0.007, 221, 221, 221, 0, 0, 0, 0, 1, 1, 0, 1, 1, 0, 1, 0, 1, 0, 1
1040, 1090, '1', 0.02991, 0.13329, 0.01955, 149, 149, 149, 0, 0, 0, 0, 1, 1, 0, 1, 1, 0, 1, 0, 1, 0, 1
1065, 1041, '1', 0.00386, 0.02203, 0.00331, 98, 98, 98, 0, 0, 0, 0, 1, 1, 0, 1, 1, 0, 1, 0, 1, 0, 1
1041, 1067, '1', 0.00393, 0.01722, 0.00262, 149, 149, 149, 0, 0, 0, 0, 1, 1, 0, 1, 1, 0, 1, 0, 1, 0, 1
1044, 3019, '1', 0.03857, 0.17192, 0.02521, 149, 149, 149, 0, 0, 0, 0, 1, 1, 0, 1, 1, 0, 1, 0, 1, 0, 1
3130, 1044, '1', 0.02731, 0.19029, 0.03111, 221, 221, 221, 0, 0, 0, 0, 1, 1, 0, 1, 1, 0, 1, 0, 1, 0, 1
1045, 1064, '1', 0.00545, 0.03794, 0.0062, 221, 221, 221, 0, 0, 0, 0, 1, 1, 0, 1, 1, 0, 1, 0, 1, 0, 1
1087, 1046, '1', 0.03262, 0.14269, 0.02173, 149, 149, 149, 0, 0, 0, 0, 1, 1, 0, 1, 1, 0, 1, 0, 1, 0, 1
1046, 3009, '1', 0.05654, 0.23454, 0.0398, 149, 149, 149, 0, 0, 0, 0, 1, 1, 0, 1, 1, 0, 1, 0, 1, 0, 1
1047, 1085, '1', 0.00947, 0.06117, 0.01167, 221, 221, 221, 0, 0, 0, 0, 1, 1, 0, 1, 1, 0, 1, 0, 1, 0, 1
1053, 1081, '1', 0.003, 0.03, 0.06, 548, 548, 548, 0, 0, 0, 0, 1, 1, 0, 1, 1, 0, 1, 0, 1, 0, 1
1054, 1056, '1', 0.02202, 0.09633, 0.01467, 149, 149, 149, 0, 0, 0, 0, 1, 1, 0, 1, 1, 0, 1, 0, 1, 0, 1
1089, 1054, '1', 0.08737, 0.21357, 0.02796, 98, 98, 98, 0, 0, 0, 0, 1, 1, 0, 1, 1, 0, 1, 0, 1, 0, 1
1055, 1089, '1', 0.04982, 0.12179, 0.01595, 98, 98, 98, 0, 0, 0, 0, 1, 1, 0, 1, 1, 0, 1, 0, 1, 0, 1
1056, 1061, '1', 0.02267, 0.12946, 0.01945, 150, 150, 150, 0, 0, 0, 0, 1, 1, 0, 1, 1, 0, 1, 0, 1, 0, 1
1056, 1065, '1', 0.02269, 0.12962, 0.01948, 250, 250, 250, 0, 0, 0, 0, 1, 1, 0, 1, 1, 0, 1, 0, 1, 0, 1
1069, 1058, '1', 0.0074, 0.05155, 0.00843, 221, 221, 221, 0, 0, 0, 0, 1, 1, 0, 1, 1, 0, 1, 0, 1, 0, 1
1069, 1058, '2', 0.0074, 0.05155, 0.00843, 221, 221, 221, 0, 0, 0, 0, 1, 1, 0, 1, 1, 0, 1, 0, 1, 0, 1
1058, 1087, '1', 0.01573, 0.10956, 0.01791, 221, 221, 221, 0, 0, 0, 0, 1, 1, 0, 1, 1, 0, 1, 0, 1, 0, 1
1058, 1087, '2', 0.01573, 0.10956, 0.01791, 221, 221, 221, 0, 0, 0, 0, 1, 1, 0, 1, 1, 0, 1, 0, 1, 0, 1
1061, 3042, '1', 0.054, 0.18, 0.028, 221, 221, 221, 0, 0, 0, 0, 1, 1, 0, 1, 1, 0, 1, 0, 1, 0, 1
1088, 1068, '1', 0.02962, 0.16921, 0.02543, 98, 98, 98, 0, 0, 0, 0, 1, 1, 0, 1, 1, 0, 1, 0, 1, 0, 1
1082, 1069, '1', 0.02137, 0.0952, 0.01396, 149, 149, 149, 0, 0, 0, 0, 1, 1, 0, 1, 1, 0, 1, 0, 1, 0, 1
3048, 1079, '1', 0.0013, 0.015, 1.02, 2300, 2300, 2300, 0, 0, 0, 0, 1, 1, 0, 1, 1, 0, 1, 0, 1, 0, 1
3048, 1079, '2', 0.0013, 0.015, 1.02, 2300, 2300, 2300, 0, 0, 0, 0, 1, 1, 0, 1, 1, 0, 1, 0, 1, 0, 1
1081, 3058, '1', 0.0091, 0.089, 0.171, 548, 548, 548, 0, 0, 0, 0, 1, 1, 0, 1, 1, 0, 1, 0, 1, 0, 1
1084, 3130, '1', 0.02049, 0.09131, 0.01339, 221, 221, 221, 0, 0, 0, 0, 1, 1, 0, 1, 1, 0, 1, 0, 1, 0, 1
1085, 1086, '1', 0.03392, 0.14838, 0.0226, 149, 149, 149, 0, 0, 0, 0, 1, 1, 0, 1, 1, 0, 1, 0, 1, 0, 1
1090, 1085, '1', 0.02018, 0.13786, 0.02346, 221, 221, 221, 0, 0, 0, 0, 1, 1, 0, 1, 1, 0, 1, 0, 1, 0, 1
2029, 1091, '1', 0.0389, 0.17144, 0.0798, 187, 187, 187, 0, 0, 0, 0, 1, 1, 0, 1, 1, 0, 1, 0, 1, 0, 1
1091, 2048, '1', 0.02193, 0.09667, 0.045, 187, 187, 187, 0, 0, 0, 0, 1, 1, 0, 1, 1, 0, 1, 0, 1, 0, 1
2098, 1091, '1', 0.00554, 0.02443, 0.01137, 187, 187, 187, 0, 0, 0, 0, 1, 1, 0, 1, 1, 0, 1, 0, 1, 0, 1
2022, 2001, '1', 0.00839, 0.03697, 0.01721, 187, 187, 187, 0, 0, 0, 0, 1, 1, 0, 1, 1, 0, 1, 0, 1, 0, 1
2027, 2001, '1', 0.00955, 0.04062, 0.02032, 187, 187, 187, 0, 0, 0, 0, 1, 1, 0, 1, 1, 0, 1, 0, 1, 0, 1
2021, 2002, '1', 0.00097, 0.01175, 0.78032, 2295, 2295, 2295, 0, 0, 0, 0, 1, 1, 0, 1, 1, 0, 1, 0, 1, 0, 1
2002, 2101, '1', 0.00031, 0.0037, 0.24573, 2020, 2020, 2020, 0, 0, 0, 0, 1, 1, 0, 1, 1, 0, 1, 0, 1, 0, 1
2038, 2003, '1', 0.00353, 0.02067, 0.01032, 251, 251, 251, 0, 0, 0, 0, 1, 1, 0, 1, 1, 0, 1, 0, 1, 0, 1
2003, 2047, '1', 0.0013, 0.0099, 0.0052, 310, 310, 310, 0, 0, 0, 0, 1, 1, 0, 1, 1, 0, 1, 0, 1, 0, 1
2007, 2114, '1', 0.00888, 0.05207, 0.026, 251, 251, 251, 0, 0, 0, 0, 1, 1, 0, 1, 1, 0, 1, 0, 1, 0, 1
2007, 2122, '1', 0.00861, 0.03661, 0.01831, 187, 187, 187, 0, 0, 0, 0, 1, 1, 0, 1, 1, 0, 1, 0, 1, 0, 1
2014, 2008, '1', 0.02253, 0.09931, 0.04623, 187, 187, 187, 0, 0, 0, 0, 1, 1, 0, 1, 1, 0, 1, 0, 1, 0, 1
2008, 2052, '1', 0.01877, 0.08271, 0.0385, 187, 187, 187, 0, 0, 0, 0, 1, 1, 0, 1, 1, 0, 1, 0, 1, 0, 1
2009, 2049, '1', 0.01224, 0.07176, 0.03583, 251, 251, 251, 0, 0, 0, 0, 1, 1, 0, 1, 1, 0, 1, 0, 1, 0, 1
2009, 2082, '1', 0.00735, 0.03126, 0.01563, 187, 187, 187, 0, 0, 0, 0, 1, 1, 0, 1, 1, 0, 1, 0, 1, 0, 1
2109, 2009, '1', 0.00725, 0.03084, 0.01542, 250, 250, 250, 0, 0, 0, 0, 1, 1, 0, 1, 1, 0, 1, 0, 1, 0, 1
2061, 2010, '1', 0.02439, 0.10748, 0.05003, 187, 187, 187, 0, 0, 0, 0, 1, 1, 0, 1, 1, 0, 1, 0, 1, 0, 1
2010, 2079, '1', 0.02061, 0.09083, 0.04228, 187, 187, 187, 0, 0, 0, 0, 1, 1, 0, 1, 1, 0, 1, 0, 1, 0, 1
2010, 2091, '1', 0.02461, 0.10467, 0.05235, 187, 187, 187, 0, 0, 0, 0, 1, 1, 0, 1, 1, 0, 1, 0, 1, 0, 1
2127, 2011, '1', 0.00108, 0.01307, 0.86827, 2020, 2020, 2020, 0, 0, 0, 0, 1, 1, 0, 1, 1, 0, 1, 0, 1, 0, 1
2012, 2041, '1', 0.01245, 0.05297, 0.02649, 187, 187, 187, 0, 0, 0, 0, 1, 1, 0, 1, 1, 0, 1, 0, 1, 0, 1
2012, 2052, '1', 0.02008, 0.08851, 0.0412, 187, 187, 187, 0, 0, 0, 0, 1, 1, 0, 1, 1, 0, 1, 0, 1, 0, 1
2093, 2012, '1', 0.01029, 0.04536, 0.02111, 187, 187, 187, 0, 0, 0, 0, 1, 1, 0, 1, 1, 0, 1, 0, 1, 0, 1
2012, 2123, '1', 0.00995, 0.0423, 0.02115, 251, 251, 251, 0, 0, 0, 0, 1, 1, 0, 1, 1, 0, 1, 0, 1, 0, 1
...